BDB13749-23-0000
     RDKit          3D

 39 40  0  0  1  0  0  0  0  0999 V2000
   32.9712   32.6057   90.8132 C   0  0  2  0  0  0  0  0  0  0  0  0
   32.9288   33.1494   92.1807 N   0  0  0  0  0  0  0  0  0  0  0  0
   33.7157   34.1179   92.7839 C   0  0  0  0  0  0  0  0  0  0  0  0
   34.6938   34.7068   92.2492 N   0  0  0  0  0  0  0  0  0  0  0  0
   33.3158   34.5636   94.4524 S   0  0  0  0  0  0  0  0  0  0  0  0
   35.3999   35.5116   93.1100 C   0  0  0  0  0  0  0  0  0  0  0  0
   36.4217   36.1122   92.7895 O   0  0  0  0  0  0  0  0  0  0  0  0
   34.8132   35.5694   94.5403 C   0  0  1  0  0  0  0  0  0  0  0  0
   34.3944   37.0332   94.8451 C   0  0  0  0  0  0  0  0  0  0  0  0
   35.8413   34.9983   95.5917 C   0  0  2  0  0  0  0  0  0  0  0  0
   36.3715   33.5716   95.2893 C   0  0  0  0  0  0  0  0  0  0  0  0
   35.3253   35.0412   97.0492 C   0  0  0  0  0  0  0  0  0  0  0  0
   34.0907   31.5953   90.5161 C   0  0  0  0  0  0  0  0  0  0  0  0
   33.7916   30.4636   89.7423 C   0  0  0  0  0  0  0  0  0  0  0  0
   34.7972   29.5716   89.3682 C   0  0  0  0  0  0  0  0  0  0  0  0
   36.1160   29.7992   89.7520 C   0  0  0  0  0  0  0  0  0  0  0  0
   36.4285   30.9216   90.5135 C   0  0  0  0  0  0  0  0  0  0  0  0
   35.4247   31.8062   90.8988 C   0  0  0  0  0  0  0  0  0  0  0  0
   32.8898   33.6637   89.7061 C   0  0  0  0  0  0  0  0  0  0  0  0
   32.5240   30.2306   89.3269 F   0  0  0  0  0  0  0  0  0  0  0  0
   32.0391   32.0436   90.7566 H   0  0  0  0  0  0  0  0  0  0  0  0
   32.1662   32.7856   92.7366 H   0  0  0  0  0  0  0  0  0  0  0  0
   35.2547   37.7037   94.8779 H   0  0  0  0  0  0  0  0  0  0  0  0
   33.6966   37.4253   94.1042 H   0  0  0  0  0  0  0  0  0  0  0  0
   33.8852   37.1159   95.8049 H   0  0  0  0  0  0  0  0  0  0  0  0
   36.7151   35.6539   95.5686 H   0  0  0  0  0  0  0  0  0  0  0  0
   35.5697   32.8329   95.2969 H   0  0  0  0  0  0  0  0  0  0  0  0
   37.1068   33.2606   96.0326 H   0  0  0  0  0  0  0  0  0  0  0  0
   36.8668   33.5121   94.3200 H   0  0  0  0  0  0  0  0  0  0  0  0
   34.4347   34.4257   97.1832 H   0  0  0  0  0  0  0  0  0  0  0  0
   36.0779   34.6728   97.7483 H   0  0  0  0  0  0  0  0  0  0  0  0
   35.0796   36.0530   97.3677 H   0  0  0  0  0  0  0  0  0  0  0  0
   34.5550   28.7074   88.7701 H   0  0  0  0  0  0  0  0  0  0  0  0
   36.8948   29.1136   89.4495 H   0  0  0  0  0  0  0  0  0  0  0  0
   37.4505   31.1226   90.7969 H   0  0  0  0  0  0  0  0  0  0  0  0
   35.7271   32.6645   91.4690 H   0  0  0  0  0  0  0  0  0  0  0  0
   32.6698   33.2069   88.7405 H   0  0  0  0  0  0  0  0  0  0  0  0
   32.1190   34.4087   89.9028 H   0  0  0  0  0  0  0  0  0  0  0  0
   33.8520   34.1599   89.6119 H   0  0  0  0  0  0  0  0  0  0  0  0
  1 13  1  0
  1  2  1  0
  1 19  1  0
  1 21  1  6
  2  3  1  0
  2 22  1  0
  3  4  2  0
  3  5  1  0
  4  6  1  0
  5  8  1  0
  6  8  1  0
  6  7  2  0
  8  9  1  1
  8 10  1  0
  9 23  1  0
  9 24  1  0
  9 25  1  0
 10 11  1  0
 10 12  1  0
 10 26  1  1
 11 27  1  0
 11 28  1  0
 11 29  1  0
 12 30  1  0
 12 31  1  0
 12 32  1  0
 13 18  2  0
 13 14  1  0
 14 15  2  0
 14 20  1  0
 15 16  1  0
 15 33  1  0
 16 17  2  0
 16 34  1  0
 17 18  1  0
 17 35  1  0
 18 36  1  0
 19 37  1  0
 19 38  1  0
 19 39  1  0
M  END
>  <Name>  (1) 
BDB13749

>  <Target>  (1) 
11-beta-Hydroxysteroid Dehydrogenase 1 (11-beta-HSD1)

>  <Ki_in_nM>  (1) 
4

>  <Kd_from_ITC>  (1) 
false

>  <Uniprot_ID>  (1) 
P28845

>  <source_organism>  (1) 
Homo sapiens (human)

>  <SourceTag>  (1) 
11betaHSD1

>  <s_i_glide_gridfile>  (1) 
11betahsd1_glide-grid

>  <i_i_glide_lignum>  (1) 
24

>  <i_i_glide_rotatable_bonds>  (1) 
4

>  <r_i_docking_score>  (1) 
-8.71695918998103

>  <r_i_glide_ligand_efficiency>  (1) 
-0.435847959499051

>  <r_i_glide_ligand_efficiency_sa>  (1) 
-1.18307337823978

>  <r_i_glide_ligand_efficiency_ln>  (1) 
-2.18156738069634

>  <r_i_glide_gscore>  (1) 
-8.71695918998103

>  <r_i_glide_lipo>  (1) 
-3.73248167996435

>  <r_i_glide_hbond>  (1) 
-0.27127074643118

>  <r_i_glide_metal>  (1) 
-0

>  <r_i_glide_rewards>  (1) 
-2.99167043536752

>  <r_i_glide_evdw>  (1) 
-36.2809524536133

>  <r_i_glide_ecoul>  (1) 
-3.60363101959229

>  <r_i_glide_erotb>  (1) 
0.633055947401534

>  <r_i_glide_esite>  (1) 
0

>  <r_i_glide_emodel>  (1) 
-60.6727431517129

>  <r_i_glide_energy>  (1) 
-39.8845834732056

>  <r_i_glide_einternal>  (1) 
1.80759787559509

>  <i_i_glide_confnum>  (1) 
9

>  <i_i_glide_posenum>  (1) 
176

>  <r_i_glide_eff_state_penalty>  (1) 
0

$$$$
BDB28369-11-0000
     RDKit          3D

 60 63  0  0  1  0  0  0  0  0999 V2000
   36.7853   34.3030   97.4027 C   0  0  0  0  0  0  0  0  0  0  0  0
   37.2100   34.9246   96.0321 C   0  0  1  0  0  0  0  0  0  0  0  0
   38.6192   34.3557   95.7087 C   0  0  0  0  0  0  0  0  0  0  0  0
   39.6440   34.5565   96.8390 C   0  0  0  0  0  0  0  0  0  0  0  0
   39.2592   33.9215   98.1641 C   0  0  2  0  0  0  0  0  0  0  0  0
   37.8333   34.3186   98.5381 C   0  0  0  0  0  0  0  0  0  0  0  0
   40.3257   34.0913   99.2937 C   0  0  0  0  0  0  0  0  0  0  0  0
   36.2305   34.7011   94.9354 N   0  0  0  0  0  0  0  0  0  0  0  0
   39.8290   34.4121  100.7242 C   0  0  1  0  0  0  0  0  0  0  0  0
   35.9166   33.4565   94.4612 C   0  0  0  0  0  0  0  0  0  0  0  0
   35.6885   35.9479   94.3700 C   0  0  1  0  0  0  0  0  0  0  0  0
   34.1869   36.1369   94.2380 C   0  0  0  0  0  0  0  0  0  0  0  0
   34.9545   36.9166   95.2773 C   0  0  0  0  0  0  0  0  0  0  0  0
   35.2585   33.2785   93.1105 C   0  0  0  0  0  0  0  0  0  0  0  0
   36.1925   32.4337   95.0831 O   0  0  0  0  0  0  0  0  0  0  0  0
   35.1965   33.6634   90.7241 C   0  0  0  0  0  0  0  0  0  0  0  0
   34.2035   32.6889   90.5598 C   0  0  0  0  0  0  0  0  0  0  0  0
   33.7273   32.0326   91.7056 C   0  0  0  0  0  0  0  0  0  0  0  0
   34.2558   32.3156   92.9610 C   0  0  0  0  0  0  0  0  0  0  0  0
   35.7154   33.9625   91.9800 C   0  0  0  0  0  0  0  0  0  0  0  0
   33.7030   32.3491   89.1313 C   0  0  1  0  0  0  0  0  0  0  0  0
   34.8978   32.0101   88.2093 C   0  0  0  0  0  0  0  0  0  0  0  0
   32.6751   31.1734   89.0643 C   0  0  1  0  0  0  0  0  0  0  0  0
   33.0661   33.4783   88.5547 O   0  0  0  0  0  0  0  0  0  0  0  0
   31.5740   31.4598   89.7512 F   0  0  0  0  0  0  0  0  0  0  0  0
   32.2691   30.8639   87.8281 F   0  0  0  0  0  0  0  0  0  0  0  0
   33.1970   30.0587   89.5666 F   0  0  0  0  0  0  0  0  0  0  0  0
   39.3323   35.7914  100.9008 C   0  0  0  0  0  0  0  0  0  0  0  0
   38.9400   36.8694  101.0368 N   0  0  0  0  0  0  0  0  0  0  0  0
   39.2149   33.2954  101.5426 C   0  0  0  0  0  0  0  0  0  0  0  0
   40.5950   33.8046  101.8839 C   0  0  0  0  0  0  0  0  0  0  0  0
   36.5139   33.2633   97.2849 H   0  0  0  0  0  0  0  0  0  0  0  0
   35.8802   34.8010   97.7513 H   0  0  0  0  0  0  0  0  0  0  0  0
   37.3436   35.9995   96.1531 H   0  0  0  0  0  0  0  0  0  0  0  0
   38.5687   33.2875   95.4952 H   0  0  0  0  0  0  0  0  0  0  0  0
   39.0054   34.8340   94.8059 H   0  0  0  0  0  0  0  0  0  0  0  0
   39.8802   35.6084   96.9779 H   0  0  0  0  0  0  0  0  0  0  0  0
   40.5487   34.0640   96.5522 H   0  0  0  0  0  0  0  0  0  0  0  0
   39.2421   32.8640   97.9017 H   0  0  0  0  0  0  0  0  0  0  0  0
   37.5461   33.6619   99.3489 H   0  0  0  0  0  0  0  0  0  0  0  0
   37.8613   35.3282   98.9355 H   0  0  0  0  0  0  0  0  0  0  0  0
   41.0390   34.8613   99.0100 H   0  0  0  0  0  0  0  0  0  0  0  0
   40.9205   33.1825   99.3515 H   0  0  0  0  0  0  0  0  0  0  0  0
   36.3316   36.3828   93.6042 H   0  0  0  0  0  0  0  0  0  0  0  0
   33.8063   36.6506   93.3547 H   0  0  0  0  0  0  0  0  0  0  0  0
   33.5222   35.3378   94.5650 H   0  0  0  0  0  0  0  0  0  0  0  0
   34.8256   36.6624   96.3293 H   0  0  0  0  0  0  0  0  0  0  0  0
   35.1165   37.9857   95.1365 H   0  0  0  0  0  0  0  0  0  0  0  0
   35.6036   34.1814   89.8693 H   0  0  0  0  0  0  0  0  0  0  0  0
   32.9666   31.2718   91.6619 H   0  0  0  0  0  0  0  0  0  0  0  0
   33.8954   31.7599   93.8160 H   0  0  0  0  0  0  0  0  0  0  0  0
   36.5150   34.6852   92.0537 H   0  0  0  0  0  0  0  0  0  0  0  0
   35.5040   31.2114   88.6359 H   0  0  0  0  0  0  0  0  0  0  0  0
   34.5654   31.6642   87.2292 H   0  0  0  0  0  0  0  0  0  0  0  0
   35.5525   32.8640   88.0362 H   0  0  0  0  0  0  0  0  0  0  0  0
   33.6424   34.2426   88.6664 H   0  0  0  0  0  0  0  0  0  0  0  0
   39.1294   32.2985  101.1121 H   0  0  0  0  0  0  0  0  0  0  0  0
   38.3892   33.5288  102.2165 H   0  0  0  0  0  0  0  0  0  0  0  0
   40.7222   34.3908  102.7963 H   0  0  0  0  0  0  0  0  0  0  0  0
   41.4488   33.1538  101.6894 H   0  0  0  0  0  0  0  0  0  0  0  0
  1  2  1  0
  1  6  1  0
  1 32  1  0
  1 33  1  0
  2  3  1  0
  2  8  1  0
  2 34  1  1
  3  4  1  0
  3 35  1  0
  3 36  1  0
  4  5  1  0
  4 37  1  0
  4 38  1  0
  5  6  1  0
  5  7  1  0
  5 39  1  6
  6 40  1  0
  6 41  1  0
  7  9  1  0
  7 42  1  0
  7 43  1  0
  8 10  1  0
  8 11  1  0
  9 28  1  1
  9 30  1  0
  9 31  1  0
 10 14  1  0
 10 15  2  0
 11 12  1  0
 11 13  1  0
 11 44  1  6
 12 13  1  0
 12 45  1  0
 12 46  1  0
 13 47  1  0
 13 48  1  0
 14 19  2  0
 14 20  1  0
 16 17  1  0
 16 20  2  0
 16 49  1  0
 17 18  2  0
 17 21  1  0
 18 19  1  0
 18 50  1  0
 19 51  1  0
 20 52  1  0
 21 22  1  0
 21 23  1  0
 21 24  1  6
 22 53  1  0
 22 54  1  0
 22 55  1  0
 23 25  1  1
 23 26  1  0
 23 27  1  0
 24 56  1  0
 28 29  3  0
 30 31  1  0
 30 57  1  0
 30 58  1  0
 31 59  1  0
 31 60  1  0
M  END
>  <Name>  (2) 
BDB28369

>  <Target>  (2) 
11-beta-Hydroxysteroid Dehydrogenase 1 (11-beta-HSD1)

>  <IC50_in_nM>  (2) 
 0.6

>  <Kd_from_ITC>  (2) 
false

>  <Uniprot_ID>  (2) 
P28845

>  <source_organism>  (2) 
Homo sapiens (human)

>  <SourceTag>  (2) 
11betaHSD1

>  <s_i_glide_gridfile>  (2) 
11betahsd1_glide-grid

>  <i_i_glide_lignum>  (2) 
12

>  <i_i_glide_rotatable_bonds>  (2) 
9

>  <r_i_docking_score>  (2) 
-8.68091362951404

>  <r_i_glide_ligand_efficiency>  (2) 
-0.280029471919808

>  <r_i_glide_ligand_efficiency_sa>  (2) 
-0.879679164181327

>  <r_i_glide_ligand_efficiency_ln>  (2) 
-1.9578120615082

>  <r_i_glide_gscore>  (2) 
-8.68091362951404

>  <r_i_glide_lipo>  (2) 
-4.89643989062135

>  <r_i_glide_hbond>  (2) 
-0.154732439082797

>  <r_i_glide_metal>  (2) 
-0

>  <r_i_glide_rewards>  (2) 
-2.31000994470494

>  <r_i_glide_evdw>  (2) 
-35.2147674560547

>  <r_i_glide_ecoul>  (2) 
-1.98312962055206

>  <r_i_glide_erotb>  (2) 
0.738476460780595

>  <r_i_glide_esite>  (2) 
0

>  <r_i_glide_emodel>  (2) 
-41.4448176974227

>  <r_i_glide_energy>  (2) 
-37.1978970766068

>  <r_i_glide_einternal>  (2) 
18.4854278564453

>  <i_i_glide_confnum>  (2) 
203

>  <i_i_glide_posenum>  (2) 
283

>  <r_i_glide_eff_state_penalty>  (2) 
0

$$$$
BDB29839-15-0000
     RDKit          3D

 48 50  0  0  1  0  0  0  0  0999 V2000
   34.1230   35.7273   94.3188 C   0  0  1  0  0  0  0  0  0  0  0  0
   33.8373   35.2859   92.8308 C   0  0  0  0  0  0  0  0  0  0  0  0
   33.7289   33.9895   92.4272 N   0  0  0  0  0  0  0  0  0  0  0  0
   33.7155   36.1641   91.9802 O   0  0  0  0  0  0  0  0  0  0  0  0
   33.3935   33.6425   91.0336 C   0  0  0  0  0  0  0  0  0  0  0  0
   33.8818   32.7847   93.2394 C   0  0  0  0  0  0  0  0  0  0  0  0
   33.3189   31.6891   92.3588 C   0  0  0  0  0  0  0  0  0  0  0  0
   33.6302   32.1215   90.9378 C   0  0  2  0  0  0  0  0  0  0  0  0
   35.1058   31.7607   90.5994 C   0  0  0  0  0  0  0  0  0  0  0  0
   32.7577   31.3821   89.8943 C   0  0  0  0  0  0  0  0  0  0  0  0
   33.0739   31.8433   88.4592 C   0  0  0  0  0  0  0  0  0  0  0  0
   34.5763   31.6534   88.1426 C   0  0  0  0  0  0  0  0  0  0  0  0
   35.4894   32.2896   89.2056 C   0  0  0  0  0  0  0  0  0  0  0  0
   35.4653   35.1176   94.8043 C   0  0  0  0  0  0  0  0  0  0  0  0
   35.4795   33.9026   95.4979 C   0  0  0  0  0  0  0  0  0  0  0  0
   36.6743   33.2608   95.7724 C   0  0  0  0  0  0  0  0  0  0  0  0
   37.8838   33.8970   95.5276 C   0  0  0  0  0  0  0  0  0  0  0  0
   37.8937   35.1600   94.9531 C   0  0  0  0  0  0  0  0  0  0  0  0
   36.6966   35.7490   94.5547 C   0  0  0  0  0  0  0  0  0  0  0  0
   34.1967   37.2858   94.4387 C   0  0  0  0  0  0  0  0  0  0  0  0
   32.9149   35.3819   95.2369 C   0  0  0  0  0  0  0  0  0  0  0  0
   32.3270   33.8248   90.9034 H   0  0  0  0  0  0  0  0  0  0  0  0
   33.9084   34.2166   90.2661 H   0  0  0  0  0  0  0  0  0  0  0  0
   34.9376   32.5780   93.4134 H   0  0  0  0  0  0  0  0  0  0  0  0
   33.3146   32.7957   94.1524 H   0  0  0  0  0  0  0  0  0  0  0  0
   33.6716   30.6886   92.6157 H   0  0  0  0  0  0  0  0  0  0  0  0
   32.2373   31.6639   92.4931 H   0  0  0  0  0  0  0  0  0  0  0  0
   35.7868   32.2080   91.3253 H   0  0  0  0  0  0  0  0  0  0  0  0
   35.2759   30.6847   90.6735 H   0  0  0  0  0  0  0  0  0  0  0  0
   32.8833   30.3015   89.9842 H   0  0  0  0  0  0  0  0  0  0  0  0
   31.7054   31.5765   90.0980 H   0  0  0  0  0  0  0  0  0  0  0  0
   32.7952   32.8897   88.3293 H   0  0  0  0  0  0  0  0  0  0  0  0
   32.4722   31.2683   87.7527 H   0  0  0  0  0  0  0  0  0  0  0  0
   34.8345   32.0626   87.1718 H   0  0  0  0  0  0  0  0  0  0  0  0
   34.7953   30.5860   88.0786 H   0  0  0  0  0  0  0  0  0  0  0  0
   35.4317   33.3758   89.1550 H   0  0  0  0  0  0  0  0  0  0  0  0
   36.5243   32.0634   88.9849 H   0  0  0  0  0  0  0  0  0  0  0  0
   34.5679   33.3897   95.7522 H   0  0  0  0  0  0  0  0  0  0  0  0
   36.6416   32.2565   96.1523 H   0  0  0  0  0  0  0  0  0  0  0  0
   38.8152   33.4073   95.7728 H   0  0  0  0  0  0  0  0  0  0  0  0
   38.8347   35.6570   94.7775 H   0  0  0  0  0  0  0  0  0  0  0  0
   36.7530   36.6945   94.0433 H   0  0  0  0  0  0  0  0  0  0  0  0
   34.9157   37.7285   93.7524 H   0  0  0  0  0  0  0  0  0  0  0  0
   33.2396   37.7596   94.2120 H   0  0  0  0  0  0  0  0  0  0  0  0
   34.4786   37.6017   95.4452 H   0  0  0  0  0  0  0  0  0  0  0  0
   32.6129   34.3444   95.2131 H   0  0  0  0  0  0  0  0  0  0  0  0
   33.1239   35.6253   96.2800 H   0  0  0  0  0  0  0  0  0  0  0  0
   32.0266   35.9458   94.9517 H   0  0  0  0  0  0  0  0  0  0  0  0
  1  2  1  0
  1 14  1  0
  1 21  1  1
  1 20  1  0
  2  3  1  0
  2  4  2  0
  3  5  1  0
  3  6  1  0
  8  5  1  1
  5 22  1  0
  5 23  1  0
  6  7  1  0
  6 24  1  0
  6 25  1  0
  7  8  1  0
  7 26  1  0
  7 27  1  0
  8  9  1  0
  8 10  1  0
  9 13  1  0
  9 28  1  0
  9 29  1  0
 10 11  1  0
 10 30  1  0
 10 31  1  0
 11 12  1  0
 11 32  1  0
 11 33  1  0
 12 13  1  0
 12 34  1  0
 12 35  1  0
 13 36  1  0
 13 37  1  0
 14 19  2  0
 14 15  1  0
 15 16  2  0
 15 38  1  0
 16 17  1  0
 16 39  1  0
 17 18  2  0
 17 40  1  0
 18 19  1  0
 18 41  1  0
 19 42  1  0
 20 43  1  0
 20 44  1  0
 20 45  1  0
 21 46  1  0
 21 47  1  0
 21 48  1  0
M  END
>  <Name>  (3) 
BDB29839

>  <Target>  (3) 
11-beta-Hydroxysteroid Dehydrogenase 1 (11-beta-HSD1)

>  <IC50_in_nM>  (3) 
  1.5

>  <Kd_from_ITC>  (3) 
false

>  <Uniprot_ID>  (3) 
P28845

>  <source_organism>  (3) 
Homo sapiens (human)

>  <SourceTag>  (3) 
11betaHSD1

>  <s_i_glide_gridfile>  (3) 
11betahsd1_glide-grid

>  <i_i_glide_lignum>  (3) 
16

>  <i_i_glide_rotatable_bonds>  (3) 
3

>  <r_i_docking_score>  (3) 
-9.57712143552334

>  <r_i_glide_ligand_efficiency>  (3) 
-0.456053401691588

>  <r_i_glide_ligand_efficiency_sa>  (3) 
-1.25821675437088

>  <r_i_glide_ligand_efficiency_ln>  (3) 
-2.3679239225371

>  <r_i_glide_gscore>  (3) 
-9.57712143552334

>  <r_i_glide_lipo>  (3) 
-4.65212737275176

>  <r_i_glide_hbond>  (3) 
-0.28933455324277

>  <r_i_glide_metal>  (3) 
-0

>  <r_i_glide_rewards>  (3) 
-3.00296307966655

>  <r_i_glide_evdw>  (3) 
-30.166784286499

>  <r_i_glide_ecoul>  (3) 
-5.28322458267212

>  <r_i_glide_erotb>  (3) 
0.66812647186351

>  <r_i_glide_esite>  (3) 
0

>  <r_i_glide_emodel>  (3) 
-53.1677241432504

>  <r_i_glide_energy>  (3) 
-35.4500088691711

>  <r_i_glide_einternal>  (3) 
6.26223516464233

>  <i_i_glide_confnum>  (3) 
9

>  <i_i_glide_posenum>  (3) 
94

>  <r_i_glide_eff_state_penalty>  (3) 
0

$$$$
BDB29843-38-0000
     RDKit          3D

 48 50  0  0  1  0  0  0  0  0999 V2000
   34.4626   35.4418   96.4911 C   0  0  0  0  0  0  0  0  0  0  0  0
   33.4940   36.4292   96.7687 C   0  0  0  0  0  0  0  0  0  0  0  0
   33.3003   37.4888   95.9005 C   0  0  0  0  0  0  0  0  0  0  0  0
   34.1235   37.6625   94.8066 C   0  0  0  0  0  0  0  0  0  0  0  0
   35.1328   36.7505   94.5601 C   0  0  0  0  0  0  0  0  0  0  0  0
   35.3089   35.6278   95.3760 C   0  0  0  0  0  0  0  0  0  0  0  0
   34.5536   34.1920   97.3529 C   0  0  0  0  0  0  0  0  0  0  0  0
   32.5160   36.4639   98.1856 Cl  0  0  0  0  0  0  0  0  0  0  0  0
   36.6575   34.5369   94.8588 S   0  0  2  0  0  0  0  0  0  0  0  0
   36.1825   34.3271   93.3759 N   0  0  0  0  0  0  0  0  0  0  0  0
   35.1809   33.4908   92.9805 C   0  0  0  0  0  0  0  0  0  0  0  0
   33.9101   31.4359   93.0439 C   0  0  0  0  0  0  0  0  0  0  0  0
   34.8866   32.2600   93.5911 C   0  0  0  0  0  0  0  0  0  0  0  0
   34.5080   33.8821   91.8612 N   0  0  0  0  0  0  0  0  0  0  0  0
   33.5557   33.0734   91.3332 C   0  0  0  0  0  0  0  0  0  0  0  0
   33.2279   31.8530   91.9137 C   0  0  0  0  0  0  0  0  0  0  0  0
   36.6655   33.3415   95.7074 O   0  0  0  0  0  0  0  0  0  0  0  0
   37.8375   35.4018   94.9492 O   0  0  0  0  0  0  0  0  0  0  0  0
   32.9597   33.4878   89.9886 C   0  0  0  0  0  0  0  0  0  0  0  0
   33.0494   32.3358   88.9565 C   0  0  0  0  0  0  0  0  0  0  0  0
   34.2623   31.8322   88.5975 N   0  0  0  0  0  0  0  0  0  0  0  0
   31.9889   31.8601   88.5455 O   0  0  0  0  0  0  0  0  0  0  0  0
   35.5412   32.3934   89.0577 C   0  0  0  0  0  0  0  0  0  0  0  0
   34.3996   30.5440   87.8892 C   0  0  0  0  0  0  0  0  0  0  0  0
   34.8036   29.5235   88.9734 C   0  0  0  0  0  0  0  0  0  0  0  0
   36.1418   29.8991   89.6440 C   0  0  0  0  0  0  0  0  0  0  0  0
   36.2078   31.3907   90.0455 C   0  0  0  0  0  0  0  0  0  0  0  0
   32.5167   38.1957   96.1034 H   0  0  0  0  0  0  0  0  0  0  0  0
   33.9819   38.5076   94.1594 H   0  0  0  0  0  0  0  0  0  0  0  0
   35.7779   36.8837   93.7042 H   0  0  0  0  0  0  0  0  0  0  0  0
   33.7201   34.0807   98.0406 H   0  0  0  0  0  0  0  0  0  0  0  0
   34.5162   33.2989   96.7322 H   0  0  0  0  0  0  0  0  0  0  0  0
   35.4894   34.1774   97.9105 H   0  0  0  0  0  0  0  0  0  0  0  0
   33.7205   30.4549   93.4432 H   0  0  0  0  0  0  0  0  0  0  0  0
   35.4370   31.8875   94.4371 H   0  0  0  0  0  0  0  0  0  0  0  0
   32.5186   31.2030   91.4390 H   0  0  0  0  0  0  0  0  0  0  0  0
   33.3907   34.4211   89.6173 H   0  0  0  0  0  0  0  0  0  0  0  0
   31.9022   33.6782   90.1511 H   0  0  0  0  0  0  0  0  0  0  0  0
   36.1170   32.4993   88.1531 H   0  0  0  0  0  0  0  0  0  0  0  0
   35.4758   33.4138   89.4383 H   0  0  0  0  0  0  0  0  0  0  0  0
   35.2265   30.6294   87.1807 H   0  0  0  0  0  0  0  0  0  0  0  0
   33.5578   30.2730   87.2440 H   0  0  0  0  0  0  0  0  0  0  0  0
   34.8987   28.5301   88.5293 H   0  0  0  0  0  0  0  0  0  0  0  0
   34.0155   29.4637   89.7250 H   0  0  0  0  0  0  0  0  0  0  0  0
   36.2984   29.2756   90.5298 H   0  0  0  0  0  0  0  0  0  0  0  0
   36.9684   29.6598   88.9766 H   0  0  0  0  0  0  0  0  0  0  0  0
   35.7388   31.4850   91.0180 H   0  0  0  0  0  0  0  0  0  0  0  0
   37.2449   31.6852   90.2178 H   0  0  0  0  0  0  0  0  0  0  0  0
  1  2  2  0
  1  6  1  0
  1  7  1  0
  2  3  1  0
  2  8  1  0
  3  4  2  0
  3 28  1  0
  4  5  1  0
  4 29  1  0
  5  6  2  0
  5 30  1  0
  6  9  1  0
  7 31  1  0
  7 32  1  0
  7 33  1  0
  9 10  1  6
  9 17  2  0
  9 18  2  0
 10 11  1  0
 11 13  2  0
 11 14  1  0
 12 13  1  0
 12 16  2  0
 12 34  1  0
 13 35  1  0
 14 15  2  0
 15 16  1  0
 15 19  1  0
 16 36  1  0
 19 20  1  0
 19 37  1  0
 19 38  1  0
 20 21  1  0
 20 22  2  0
 21 23  1  0
 21 24  1  0
 23 27  1  0
 23 39  1  0
 23 40  1  0
 24 25  1  0
 24 41  1  0
 24 42  1  0
 25 26  1  0
 25 43  1  0
 25 44  1  0
 26 27  1  0
 26 45  1  0
 26 46  1  0
 27 47  1  0
 27 48  1  0
M  CHG  1  10  -1
M  END
>  <Name>  (4) 
BDB29843

>  <Target>  (4) 
11-beta-Hydroxysteroid Dehydrogenase 1 (11-beta-HSD1)

>  <Ki_in_nM>  (4) 
169

>  <Kd_from_ITC>  (4) 
false

>  <Uniprot_ID>  (4) 
P28845

>  <source_organism>  (4) 
Homo sapiens (human)

>  <SourceTag>  (4) 
11betaHSD1

>  <s_i_glide_gridfile>  (4) 
11betahsd1_glide-grid

>  <i_i_glide_lignum>  (4) 
39

>  <i_i_glide_rotatable_bonds>  (4) 
6

>  <r_i_docking_score>  (4) 
-8.42573142764539

>  <r_i_glide_ligand_efficiency>  (4) 
-0.312064126949829

>  <r_i_glide_ligand_efficiency_sa>  (4) 
-0.936192379820976

>  <r_i_glide_ligand_efficiency_ln>  (4) 
-1.96137136731693

>  <r_i_glide_gscore>  (4) 
-8.42573142764539

>  <r_i_glide_lipo>  (4) 
-4.85060918222258

>  <r_i_glide_hbond>  (4) 
0

>  <r_i_glide_metal>  (4) 
-0

>  <r_i_glide_rewards>  (4) 
-1.72237266458724

>  <r_i_glide_evdw>  (4) 
-41.850040435791

>  <r_i_glide_ecoul>  (4) 
-3.15284204483032

>  <r_i_glide_erotb>  (4) 
0.712678747678534

>  <r_i_glide_esite>  (4) 
0

>  <r_i_glide_emodel>  (4) 
-51.5574701320253

>  <r_i_glide_energy>  (4) 
-45.0028824806213

>  <r_i_glide_einternal>  (4) 
12.2958250045776

>  <i_i_glide_confnum>  (4) 
150

>  <i_i_glide_posenum>  (4) 
169

>  <r_i_glide_eff_state_penalty>  (4) 
0

$$$$
BDB29860-22-0000
     RDKit          3D

 39 41  0  0  1  0  0  0  0  0999 V2000
   34.4088   34.5166   92.7680 C   0  0  0  0  0  0  0  0  0  0  0  0
   34.2463   35.9937   93.7523 S   0  0  1  0  0  0  0  0  0  0  0  0
   34.3737   35.3993   95.1824 N   0  0  0  0  0  0  0  0  0  0  0  0
   35.5395   34.9780   95.7567 C   0  0  0  0  0  0  0  0  0  0  0  0
   36.5154   34.0638   97.7523 C   0  0  0  0  0  0  0  0  0  0  0  0
   35.4000   34.5143   97.0617 C   0  0  0  0  0  0  0  0  0  0  0  0
   36.7653   34.9595   95.1455 N   0  0  0  0  0  0  0  0  0  0  0  0
   37.8369   34.4946   95.8501 C   0  0  0  0  0  0  0  0  0  0  0  0
   37.7584   34.0638   97.1599 C   0  0  0  0  0  0  0  0  0  0  0  0
   35.3362   36.8638   93.3172 O   0  0  0  0  0  0  0  0  0  0  0  0
   32.8944   36.4638   93.4666 O   0  0  0  0  0  0  0  0  0  0  0  0
   39.1567   34.3835   95.1535 C   0  0  0  0  0  0  0  0  0  0  0  0
   33.3154   33.6638   92.6319 C   0  0  0  0  0  0  0  0  0  0  0  0
   33.3902   32.5882   91.7580 C   0  0  0  0  0  0  0  0  0  0  0  0
   34.5662   32.3535   91.0405 C   0  0  0  0  0  0  0  0  0  0  0  0
   35.6895   33.1562   91.2590 C   0  0  0  0  0  0  0  0  0  0  0  0
   35.6127   34.2402   92.1213 C   0  0  0  0  0  0  0  0  0  0  0  0
   34.6062   31.3235   89.9864 C   0  0  0  0  0  0  0  0  0  0  0  0
   35.6210   30.3640   89.9612 C   0  0  0  0  0  0  0  0  0  0  0  0
   35.7154   29.4813   88.8920 C   0  0  0  0  0  0  0  0  0  0  0  0
   34.8121   29.5837   87.8343 C   0  0  0  0  0  0  0  0  0  0  0  0
   33.7592   30.4923   87.8859 C   0  0  0  0  0  0  0  0  0  0  0  0
   33.6567   31.3607   88.9625 C   0  0  0  0  0  0  0  0  0  0  0  0
   34.9154   28.7199   86.6746 C   0  0  0  0  0  0  0  0  0  0  0  0
   34.9658   28.0265   85.7523 N   0  0  0  0  0  0  0  0  0  0  0  0
   36.4217   33.6638   98.7470 H   0  0  0  0  0  0  0  0  0  0  0  0
   34.4338   34.4987   97.5463 H   0  0  0  0  0  0  0  0  0  0  0  0
   38.6213   33.6864   97.6894 H   0  0  0  0  0  0  0  0  0  0  0  0
   39.9841   34.3076   95.8596 H   0  0  0  0  0  0  0  0  0  0  0  0
   39.1452   33.4776   94.5523 H   0  0  0  0  0  0  0  0  0  0  0  0
   39.3154   35.2638   94.5523 H   0  0  0  0  0  0  0  0  0  0  0  0
   32.4006   33.8630   93.1699 H   0  0  0  0  0  0  0  0  0  0  0  0
   32.5217   31.9617   91.6145 H   0  0  0  0  0  0  0  0  0  0  0  0
   36.6068   32.9794   90.7156 H   0  0  0  0  0  0  0  0  0  0  0  0
   36.4697   34.8861   92.2502 H   0  0  0  0  0  0  0  0  0  0  0  0
   36.3509   30.3194   90.7571 H   0  0  0  0  0  0  0  0  0  0  0  0
   36.5154   28.7539   88.8783 H   0  0  0  0  0  0  0  0  0  0  0  0
   33.0302   30.5423   87.0900 H   0  0  0  0  0  0  0  0  0  0  0  0
   32.8657   32.0965   88.9781 H   0  0  0  0  0  0  0  0  0  0  0  0
  1  2  1  0
  1 17  2  0
  1 13  1  0
  2  3  1  1
  2 10  2  0
  2 11  2  0
  3  4  1  0
  4  6  2  0
  4  7  1  0
  5  6  1  0
  5  9  2  0
  5 26  1  0
  6 27  1  0
  7  8  2  0
  8  9  1  0
  8 12  1  0
  9 28  1  0
 12 29  1  0
 12 30  1  0
 12 31  1  0
 13 14  2  0
 13 32  1  0
 14 15  1  0
 14 33  1  0
 15 16  2  0
 15 18  1  0
 16 17  1  0
 16 34  1  0
 17 35  1  0
 18 23  2  0
 18 19  1  0
 19 20  2  0
 19 36  1  0
 20 21  1  0
 20 37  1  0
 21 22  2  0
 21 24  1  0
 22 23  1  0
 22 38  1  0
 23 39  1  0
 24 25  3  0
M  CHG  1   3  -1
M  END
>  <Name>  (5) 
BDB29860

>  <Target>  (5) 
11-beta-Hydroxysteroid Dehydrogenase 1 (11-beta-HSD1)

>  <Ki_in_nM>  (5) 
4

>  <Kd_from_ITC>  (5) 
false

>  <Uniprot_ID>  (5) 
P28845

>  <source_organism>  (5) 
Homo sapiens (human)

>  <SourceTag>  (5) 
11betaHSD1

>  <s_i_glide_gridfile>  (5) 
11betahsd1_glide-grid

>  <i_i_glide_lignum>  (5) 
23

>  <i_i_glide_rotatable_bonds>  (5) 
4

>  <r_i_docking_score>  (5) 
-8.6496907055369

>  <r_i_glide_ligand_efficiency>  (5) 
-0.345987628221476

>  <r_i_glide_ligand_efficiency_sa>  (5) 
-1.01167396103631

>  <r_i_glide_ligand_efficiency_ln>  (5) 
-2.0502359075257

>  <r_i_glide_gscore>  (5) 
-8.6496907055369

>  <r_i_glide_lipo>  (5) 
-4.12100063420554

>  <r_i_glide_hbond>  (5) 
-0.32

>  <r_i_glide_metal>  (5) 
-0

>  <r_i_glide_rewards>  (5) 
-2.10594344780878

>  <r_i_glide_evdw>  (5) 
-33.7178192138672

>  <r_i_glide_ecoul>  (5) 
-6.96111917495728

>  <r_i_glide_erotb>  (5) 
0.62731221341438

>  <r_i_glide_esite>  (5) 
0

>  <r_i_glide_emodel>  (5) 
-61.461262519533

>  <r_i_glide_energy>  (5) 
-40.6789383888245

>  <r_i_glide_einternal>  (5) 
4.50788736343384

>  <i_i_glide_confnum>  (5) 
11

>  <i_i_glide_posenum>  (5) 
64

>  <r_i_glide_eff_state_penalty>  (5) 
0

$$$$
BDB29864-20-0000
     RDKit          3D

 38 40  0  0  1  0  0  0  0  0999 V2000
   34.3979   34.5253   92.9300 C   0  0  0  0  0  0  0  0  0  0  0  0
   34.2472   35.9766   93.9635 S   0  0  1  0  0  0  0  0  0  0  0  0
   34.4615   35.3383   95.3732 N   0  0  0  0  0  0  0  0  0  0  0  0
   35.6841   34.9807   95.8738 C   0  0  0  0  0  0  0  0  0  0  0  0
   36.8903   34.0638   97.7523 C   0  0  0  0  0  0  0  0  0  0  0  0
   35.6902   34.4616   97.1696 C   0  0  0  0  0  0  0  0  0  0  0  0
   36.8537   35.0957   95.1803 N   0  0  0  0  0  0  0  0  0  0  0  0
   38.0067   34.7029   95.7674 C   0  0  0  0  0  0  0  0  0  0  0  0
   38.0741   34.1732   97.0437 C   0  0  0  0  0  0  0  0  0  0  0  0
   35.3154   36.8638   93.4975 O   0  0  0  0  0  0  0  0  0  0  0  0
   32.8717   36.4343   93.7523 O   0  0  0  0  0  0  0  0  0  0  0  0
   39.1769   34.8638   95.0621 N   0  0  0  0  0  0  0  0  0  0  0  0
   33.3154   33.6592   92.7963 C   0  0  0  0  0  0  0  0  0  0  0  0
   33.3896   32.5961   91.9047 C   0  0  0  0  0  0  0  0  0  0  0  0
   34.5562   32.3834   91.1642 C   0  0  0  0  0  0  0  0  0  0  0  0
   35.6690   33.2031   91.3725 C   0  0  0  0  0  0  0  0  0  0  0  0
   35.5910   34.2751   92.2508 C   0  0  0  0  0  0  0  0  0  0  0  0
   34.5959   31.3633   90.0966 C   0  0  0  0  0  0  0  0  0  0  0  0
   33.6329   31.4007   89.0862 C   0  0  0  0  0  0  0  0  0  0  0  0
   33.7375   30.5554   87.9913 C   0  0  0  0  0  0  0  0  0  0  0  0
   34.8043   29.6638   87.9037 C   0  0  0  0  0  0  0  0  0  0  0  0
   35.7180   29.5544   88.9523 C   0  0  0  0  0  0  0  0  0  0  0  0
   35.6231   30.4169   90.0403 C   0  0  0  0  0  0  0  0  0  0  0  0
   34.9154   28.8474   86.7075 C   0  0  0  0  0  0  0  0  0  0  0  0
   34.9567   28.1950   85.7523 N   0  0  0  0  0  0  0  0  0  0  0  0
   36.9073   33.6638   98.7521 H   0  0  0  0  0  0  0  0  0  0  0  0
   34.7699   34.3666   97.7281 H   0  0  0  0  0  0  0  0  0  0  0  0
   39.0123   33.8688   97.4843 H   0  0  0  0  0  0  0  0  0  0  0  0
   40.0627   34.6205   95.4846 H   0  0  0  0  0  0  0  0  0  0  0  0
   39.1284   35.2625   94.1370 H   0  0  0  0  0  0  0  0  0  0  0  0
   32.4067   33.8362   93.3523 H   0  0  0  0  0  0  0  0  0  0  0  0
   32.5268   31.9601   91.7682 H   0  0  0  0  0  0  0  0  0  0  0  0
   36.5794   33.0473   90.8114 H   0  0  0  0  0  0  0  0  0  0  0  0
   36.4427   34.9289   92.3735 H   0  0  0  0  0  0  0  0  0  0  0  0
   32.8315   32.1243   89.1232 H   0  0  0  0  0  0  0  0  0  0  0  0
   32.9991   30.6184   87.2055 H   0  0  0  0  0  0  0  0  0  0  0  0
   36.5282   28.8401   88.9134 H   0  0  0  0  0  0  0  0  0  0  0  0
   36.3643   30.3696   90.8255 H   0  0  0  0  0  0  0  0  0  0  0  0
  1  2  1  0
  1 17  2  0
  1 13  1  0
  2  3  1  1
  2 10  2  0
  2 11  2  0
  3  4  1  0
  4  6  2  0
  4  7  1  0
  5  6  1  0
  5  9  2  0
  5 26  1  0
  6 27  1  0
  7  8  2  0
  8  9  1  0
  8 12  1  0
  9 28  1  0
 12 29  1  0
 12 30  1  0
 13 14  2  0
 13 31  1  0
 14 15  1  0
 14 32  1  0
 15 16  2  0
 15 18  1  0
 16 17  1  0
 16 33  1  0
 17 34  1  0
 18 23  2  0
 18 19  1  0
 19 20  2  0
 19 35  1  0
 20 21  1  0
 20 36  1  0
 21 22  2  0
 21 24  1  0
 22 23  1  0
 22 37  1  0
 23 38  1  0
 24 25  3  0
M  CHG  1   3  -1
M  END
>  <Name>  (6) 
BDB29864

>  <Target>  (6) 
11-beta-Hydroxysteroid Dehydrogenase 1 (11-beta-HSD1)

>  <Ki_in_nM>  (6) 
1

>  <Kd_from_ITC>  (6) 
false

>  <Uniprot_ID>  (6) 
P28845

>  <source_organism>  (6) 
Homo sapiens (human)

>  <SourceTag>  (6) 
11betaHSD1

>  <s_i_glide_gridfile>  (6) 
11betahsd1_glide-grid

>  <i_i_glide_lignum>  (6) 
21

>  <i_i_glide_rotatable_bonds>  (6) 
4

>  <r_i_docking_score>  (6) 
-9.25422628004289

>  <r_i_glide_ligand_efficiency>  (6) 
-0.370169051201716

>  <r_i_glide_ligand_efficiency_sa>  (6) 
-1.08238087068989

>  <r_i_glide_ligand_efficiency_ln>  (6) 
-2.19352895515288

>  <r_i_glide_gscore>  (6) 
-9.25422628004289

>  <r_i_glide_lipo>  (6) 
-4.08588457438015

>  <r_i_glide_hbond>  (6) 
-0.54735410952654

>  <r_i_glide_metal>  (6) 
-0

>  <r_i_glide_rewards>  (6) 
-2.30336644823341

>  <r_i_glide_evdw>  (6) 
-34.9753189086914

>  <r_i_glide_ecoul>  (6) 
-7.953453540802

>  <r_i_glide_erotb>  (6) 
0.624162828652078

>  <r_i_glide_esite>  (6) 
0

>  <r_i_glide_emodel>  (6) 
-68.9575624111931

>  <r_i_glide_energy>  (6) 
-42.9287724494934

>  <r_i_glide_einternal>  (6) 
3.47615170478821

>  <i_i_glide_confnum>  (6) 
14

>  <i_i_glide_posenum>  (6) 
233

>  <r_i_glide_eff_state_penalty>  (6) 
0

$$$$
BDB50174285-18-0000
     RDKit          3D

 59 62  0  0  1  0  0  0  0  0999 V2000
   34.2714   31.4759   92.6255 C   0  0  0  0  0  0  0  0  0  0  0  0
   35.3440   30.7962   91.7428 C   0  0  0  0  0  0  0  0  0  0  0  0
   32.5911   32.5864   90.2676 C   0  0  0  0  0  0  0  0  0  0  0  0
   33.4686   32.2661   89.0428 C   0  0  0  0  0  0  0  0  0  0  0  0
   34.8826   31.7193   89.3357 C   0  0  0  0  0  0  0  0  0  0  0  0
   34.9525   30.4942   90.2757 C   0  0  0  0  0  0  0  0  0  0  0  0
   34.1013   32.8986   92.3185 N   0  0  0  0  0  0  0  0  0  0  0  0
   34.6328   34.0382   92.9203 C   0  0  0  0  0  0  0  0  0  0  0  0
   34.1455   35.1178   92.3645 N   0  0  0  0  0  0  0  0  0  0  0  0
   33.3147   34.7134   91.3523 N   0  0  0  0  0  0  0  0  0  0  0  0
   33.3154   33.4119   91.3148 C   0  0  0  0  0  0  0  0  0  0  0  0
   36.7037   33.1121   94.1353 C   0  0  0  0  0  0  0  0  0  0  0  0
   35.5472   34.1401   94.1386 C   0  0  1  0  0  0  0  0  0  0  0  0
   37.5232   33.2114   95.4396 C   0  0  0  0  0  0  0  0  0  0  0  0
   36.2229   35.5498   94.2614 C   0  0  0  0  0  0  0  0  0  0  0  0
   34.7254   33.8854   95.4172 C   0  0  0  0  0  0  0  0  0  0  0  0
   37.0504   34.3577   96.3730 C   0  0  1  0  0  0  0  0  0  0  0  0
   37.0927   35.6638   95.5408 C   0  0  0  0  0  0  0  0  0  0  0  0
   35.5506   34.1120   96.6974 C   0  0  0  0  0  0  0  0  0  0  0  0
   37.8398   34.4117   97.7064 C   0  0  0  0  0  0  0  0  0  0  0  0
   39.3795   34.4319   97.6200 C   0  0  0  0  0  0  0  0  0  0  0  0
   40.0836   34.4583   98.9923 C   0  0  0  0  0  0  0  0  0  0  0  0
   39.7060   35.6438   99.9040 C   0  0  0  0  0  0  0  0  0  0  0  0
   40.6080   35.7493  101.1409 C   0  0  0  0  0  0  0  0  0  0  0  0
   34.4626   31.3481   93.6875 H   0  0  0  0  0  0  0  0  0  0  0  0
   33.3154   30.9764   92.4856 H   0  0  0  0  0  0  0  0  0  0  0  0
   36.2655   31.3797   91.7524 H   0  0  0  0  0  0  0  0  0  0  0  0
   35.6040   29.8494   92.2182 H   0  0  0  0  0  0  0  0  0  0  0  0
   32.1933   31.6655   90.6907 H   0  0  0  0  0  0  0  0  0  0  0  0
   31.7154   33.1254   89.9103 H   0  0  0  0  0  0  0  0  0  0  0  0
   33.5750   33.1725   88.4437 H   0  0  0  0  0  0  0  0  0  0  0  0
   32.9354   31.5584   88.4063 H   0  0  0  0  0  0  0  0  0  0  0  0
   35.5229   32.5194   89.7114 H   0  0  0  0  0  0  0  0  0  0  0  0
   35.3166   31.4416   88.3748 H   0  0  0  0  0  0  0  0  0  0  0  0
   35.7106   29.8170   89.8779 H   0  0  0  0  0  0  0  0  0  0  0  0
   34.0241   29.9241   90.2343 H   0  0  0  0  0  0  0  0  0  0  0  0
   37.3154   33.2585   93.2588 H   0  0  0  0  0  0  0  0  0  0  0  0
   36.3631   32.0868   94.0530 H   0  0  0  0  0  0  0  0  0  0  0  0
   38.5894   33.2518   95.2163 H   0  0  0  0  0  0  0  0  0  0  0  0
   37.3154   32.2960   95.9667 H   0  0  0  0  0  0  0  0  0  0  0  0
   36.8353   35.7525   93.3809 H   0  0  0  0  0  0  0  0  0  0  0  0
   35.4661   36.3363   94.2820 H   0  0  0  0  0  0  0  0  0  0  0  0
   33.7789   34.4293   95.4360 H   0  0  0  0  0  0  0  0  0  0  0  0
   34.5154   32.8202   95.4021 H   0  0  0  0  0  0  0  0  0  0  0  0
   36.6763   36.4638   96.1458 H   0  0  0  0  0  0  0  0  0  0  0  0
   38.1153   35.9469   95.2912 H   0  0  0  0  0  0  0  0  0  0  0  0
   35.4272   33.2609   97.3523 H   0  0  0  0  0  0  0  0  0  0  0  0
   35.1411   34.9607   97.2489 H   0  0  0  0  0  0  0  0  0  0  0  0
   37.5590   33.5599   98.3237 H   0  0  0  0  0  0  0  0  0  0  0  0
   37.4829   35.2638   98.2686 H   0  0  0  0  0  0  0  0  0  0  0  0
   39.7196   35.2638   97.0077 H   0  0  0  0  0  0  0  0  0  0  0  0
   39.7154   33.5350   97.1016 H   0  0  0  0  0  0  0  0  0  0  0  0
   41.1594   34.4637   98.8208 H   0  0  0  0  0  0  0  0  0  0  0  0
   39.8788   33.5254   99.5200 H   0  0  0  0  0  0  0  0  0  0  0  0
   38.6723   35.5396  100.2346 H   0  0  0  0  0  0  0  0  0  0  0  0
   39.7496   36.5824   99.3523 H   0  0  0  0  0  0  0  0  0  0  0  0
   40.3083   36.5868  101.7715 H   0  0  0  0  0  0  0  0  0  0  0  0
   41.6502   35.9048  100.8597 H   0  0  0  0  0  0  0  0  0  0  0  0
   40.5564   34.8440  101.7469 H   0  0  0  0  0  0  0  0  0  0  0  0
  1  7  1  0
  1  2  1  0
  1 25  1  0
  1 26  1  0
  2  6  1  0
  2 27  1  0
  2 28  1  0
  3 11  1  0
  3  4  1  0
  3 29  1  0
  3 30  1  0
  4  5  1  0
  4 31  1  0
  4 32  1  0
  5  6  1  0
  5 33  1  0
  5 34  1  0
  6 35  1  0
  6 36  1  0
  7  8  1  0
  7 11  1  0
 13  8  1  6
  8  9  2  0
  9 10  1  0
 10 11  2  0
 12 13  1  0
 12 14  1  0
 12 37  1  0
 12 38  1  0
 13 15  1  0
 13 16  1  0
 14 17  1  0
 14 39  1  0
 14 40  1  0
 15 18  1  0
 15 41  1  0
 15 42  1  0
 16 19  1  0
 16 43  1  0
 16 44  1  0
 17 18  1  0
 17 19  1  0
 17 20  1  1
 18 45  1  0
 18 46  1  0
 19 47  1  0
 19 48  1  0
 20 21  1  0
 20 49  1  0
 20 50  1  0
 21 22  1  0
 21 51  1  0
 21 52  1  0
 22 23  1  0
 22 53  1  0
 22 54  1  0
 23 24  1  0
 23 55  1  0
 23 56  1  0
 24 57  1  0
 24 58  1  0
 24 59  1  0
M  END
>  <Name>  (7) 
BDB50174285

>  <Target>  (7) 
11-beta-Hydroxysteroid Dehydrogenase 1 (11-beta-HSD1)

>  <IC50_in_nM>  (7) 
 5

>  <Kd_from_ITC>  (7) 
false

>  <Uniprot_ID>  (7) 
P28845

>  <source_organism>  (7) 
Homo sapiens

>  <SourceTag>  (7) 
11betaHSD1

>  <s_i_glide_gridfile>  (7) 
11betahsd1_glide-grid

>  <i_i_glide_lignum>  (7) 
19

>  <i_i_glide_rotatable_bonds>  (7) 
5

>  <r_i_docking_score>  (7) 
-8.43915261360752

>  <r_i_glide_ligand_efficiency>  (7) 
-0.351631358900313

>  <r_i_glide_ligand_efficiency_sa>  (7) 
-1.01428035148669

>  <r_i_glide_ligand_efficiency_ln>  (7) 
-2.01987646791634

>  <r_i_glide_gscore>  (7) 
-8.43915261360752

>  <r_i_glide_lipo>  (7) 
-4.70778564197519

>  <r_i_glide_hbond>  (7) 
0

>  <r_i_glide_metal>  (7) 
-0

>  <r_i_glide_rewards>  (7) 
-2.83635739390989

>  <r_i_glide_evdw>  (7) 
-29.1971950531006

>  <r_i_glide_ecoul>  (7) 
-0.850306212902069

>  <r_i_glide_erotb>  (7) 
0.692396106867893

>  <r_i_glide_esite>  (7) 
0

>  <r_i_glide_emodel>  (7) 
-45.0362098489981

>  <r_i_glide_energy>  (7) 
-30.0475012660027

>  <r_i_glide_einternal>  (7) 
2.87784862518311

>  <i_i_glide_confnum>  (7) 
44

>  <i_i_glide_posenum>  (7) 
315

>  <r_i_glide_eff_state_penalty>  (7) 
0

$$$$
BDB50174290-2-0000
     RDKit          3D

 61 66  0  0  1  0  0  0  0  0999 V2000
   35.0118   32.7540   92.3252 C   0  0  0  0  0  0  0  0  0  0  0  0
   33.9121   33.2447   92.9478 O   0  0  0  0  0  0  0  0  0  0  0  0
   34.3969   33.7590   94.1528 N   0  0  0  0  0  0  0  0  0  0  0  0
   35.6910   33.4986   94.1092 C   0  0  0  0  0  0  0  0  0  0  0  0
   36.1154   32.9586   92.9895 N   0  0  0  0  0  0  0  0  0  0  0  0
   36.6359   33.7346   95.2551 C   0  0  0  0  0  0  0  0  0  0  0  0
   36.1499   34.0810   96.5179 C   0  0  0  0  0  0  0  0  0  0  0  0
   37.0319   34.2321   97.5811 C   0  0  0  0  0  0  0  0  0  0  0  0
   38.4008   34.0638   97.4021 C   0  0  0  0  0  0  0  0  0  0  0  0
   38.9031   33.7390   96.1515 C   0  0  0  0  0  0  0  0  0  0  0  0
   38.0198   33.5614   95.0933 C   0  0  0  0  0  0  0  0  0  0  0  0
   39.2429   34.2203   98.4478 F   0  0  0  0  0  0  0  0  0  0  0  0
   34.7663   29.6638   87.4423 C   0  0  0  0  0  0  0  0  0  0  0  0
   34.8700   32.0535   88.4655 C   0  0  0  0  0  0  0  0  0  0  0  0
   34.7799   30.5078   88.7410 C   0  0  1  0  0  0  0  0  0  0  0  0
   34.9386   32.8937   89.7749 C   0  0  0  0  0  0  0  0  0  0  0  0
   33.4776   30.3397   89.5794 C   0  0  0  0  0  0  0  0  0  0  0  0
   35.9697   30.0994   89.6606 C   0  0  0  0  0  0  0  0  0  0  0  0
   34.8813   31.9713   91.0207 C   0  0  2  0  0  0  0  0  0  0  0  0
   33.5607   31.1419   90.9250 C   0  0  0  0  0  0  0  0  0  0  0  0
   36.0723   30.9783   90.9115 C   0  0  0  0  0  0  0  0  0  0  0  0
   35.0604   28.3127   87.3165 N   0  0  0  0  0  0  0  0  0  0  0  0
   34.4268   30.1317   86.2693 N   0  0  0  0  0  0  0  0  0  0  0  0
   34.5154   29.0982   85.3523 N   0  0  0  0  0  0  0  0  0  0  0  0
   34.9154   28.0186   85.9746 C   0  0  0  0  0  0  0  0  0  0  0  0
   35.2447   27.3385   88.3779 C   0  0  0  0  0  0  0  0  0  0  0  0
   34.9639   26.6297   85.3688 C   0  0  0  0  0  0  0  0  0  0  0  0
   33.9178   26.1497   84.5523 C   0  0  0  0  0  0  0  0  0  0  0  0
   33.9476   24.8124   84.1179 C   0  0  0  0  0  0  0  0  0  0  0  0
   35.0105   23.9774   84.4357 C   0  0  0  0  0  0  0  0  0  0  0  0
   36.0542   24.4528   85.2156 C   0  0  0  0  0  0  0  0  0  0  0  0
   36.0245   25.7616   85.6856 C   0  0  0  0  0  0  0  0  0  0  0  0
   32.9014   27.0206   84.1899 O   0  0  0  0  0  0  0  0  0  0  0  0
   31.8057   26.5519   83.4168 C   0  0  0  0  0  0  0  0  0  0  0  0
   35.0315   22.6933   83.9674 O   0  0  0  0  0  0  0  0  0  0  0  0
   35.0905   34.2077   96.6900 H   0  0  0  0  0  0  0  0  0  0  0  0
   36.6488   34.4638   98.5523 H   0  0  0  0  0  0  0  0  0  0  0  0
   39.9660   33.6088   96.0075 H   0  0  0  0  0  0  0  0  0  0  0  0
   38.4319   33.2521   94.1523 H   0  0  0  0  0  0  0  0  0  0  0  0
   35.7154   32.3105   87.8394 H   0  0  0  0  0  0  0  0  0  0  0  0
   34.0007   32.3731   87.8897 H   0  0  0  0  0  0  0  0  0  0  0  0
   35.8536   33.4895   89.7856 H   0  0  0  0  0  0  0  0  0  0  0  0
   34.1197   33.6152   89.7999 H   0  0  0  0  0  0  0  0  0  0  0  0
   32.6220   30.6934   89.0015 H   0  0  0  0  0  0  0  0  0  0  0  0
   33.2719   29.2859   89.7523 H   0  0  0  0  0  0  0  0  0  0  0  0
   35.8248   29.0976   90.0462 H   0  0  0  0  0  0  0  0  0  0  0  0
   36.9154   30.0631   89.1311 H   0  0  0  0  0  0  0  0  0  0  0  0
   33.5063   30.4638   91.7767 H   0  0  0  0  0  0  0  0  0  0  0  0
   32.6928   31.7971   91.0185 H   0  0  0  0  0  0  0  0  0  0  0  0
   37.0212   31.5187   90.8872 H   0  0  0  0  0  0  0  0  0  0  0  0
   36.1154   30.3418   91.7959 H   0  0  0  0  0  0  0  0  0  0  0  0
   34.5154   27.5402   89.1673 H   0  0  0  0  0  0  0  0  0  0  0  0
   35.0409   26.3281   88.0305 H   0  0  0  0  0  0  0  0  0  0  0  0
   36.2743   27.3787   88.7305 H   0  0  0  0  0  0  0  0  0  0  0  0
   33.1689   24.4065   83.4940 H   0  0  0  0  0  0  0  0  0  0  0  0
   36.8852   23.8134   85.4747 H   0  0  0  0  0  0  0  0  0  0  0  0
   36.8412   26.0638   86.3215 H   0  0  0  0  0  0  0  0  0  0  0  0
   31.0728   27.3500   83.3065 H   0  0  0  0  0  0  0  0  0  0  0  0
   32.1154   26.2471   82.4167 H   0  0  0  0  0  0  0  0  0  0  0  0
   31.3154   25.7148   83.9129 H   0  0  0  0  0  0  0  0  0  0  0  0
   35.8574   22.2467   84.1650 H   0  0  0  0  0  0  0  0  0  0  0  0
  1  2  1  0
  1  5  2  0
 19  1  1  1
  2  3  1  0
  3  4  2  0
  4  6  1  0
  4  5  1  0
  6 11  2  0
  6  7  1  0
  7  8  2  0
  7 36  1  0
  8  9  1  0
  8 37  1  0
  9 12  1  0
  9 10  2  0
 10 11  1  0
 10 38  1  0
 11 39  1  0
 15 13  1  6
 13 22  1  0
 13 23  2  0
 14 15  1  0
 14 16  1  0
 14 40  1  0
 14 41  1  0
 15 17  1  0
 15 18  1  0
 16 19  1  0
 16 42  1  0
 16 43  1  0
 17 20  1  0
 17 44  1  0
 17 45  1  0
 18 21  1  0
 18 46  1  0
 18 47  1  0
 19 20  1  0
 19 21  1  0
 20 48  1  0
 20 49  1  0
 21 50  1  0
 21 51  1  0
 22 25  1  0
 22 26  1  0
 23 24  1  0
 24 25  2  0
 25 27  1  0
 26 52  1  0
 26 53  1  0
 26 54  1  0
 27 28  2  0
 27 32  1  0
 28 29  1  0
 28 33  1  0
 29 30  2  0
 29 55  1  0
 30 31  1  0
 30 35  1  0
 31 32  2  0
 31 56  1  0
 32 57  1  0
 33 34  1  0
 34 58  1  0
 34 59  1  0
 34 60  1  0
 35 61  1  0
M  END
>  <Name>  (8) 
BDB50174290

>  <Target>  (8) 
11-beta-Hydroxysteroid Dehydrogenase 1 (11-beta-HSD1)

>  <IC50_in_nM>  (8) 
 8.6

>  <Kd_from_ITC>  (8) 
false

>  <Uniprot_ID>  (8) 
P28845

>  <source_organism>  (8) 
Homo sapiens

>  <SourceTag>  (8) 
11betaHSD1

>  <s_i_glide_gridfile>  (8) 
11betahsd1_glide-grid

>  <i_i_glide_lignum>  (8) 
3

>  <i_i_glide_rotatable_bonds>  (8) 
6

>  <r_i_docking_score>  (8) 
-8.13411906709471

>  <r_i_glide_ligand_efficiency>  (8) 
-0.232403401916992

>  <r_i_glide_ligand_efficiency_sa>  (8) 
-0.760206937482957

>  <r_i_glide_ligand_efficiency_ln>  (8) 
-1.78561966227344

>  <r_i_glide_gscore>  (8) 
-8.13411906709471

>  <r_i_glide_lipo>  (8) 
-4.22268638079566

>  <r_i_glide_hbond>  (8) 
0

>  <r_i_glide_metal>  (8) 
-0

>  <r_i_glide_rewards>  (8) 
-2.15363094610335

>  <r_i_glide_evdw>  (8) 
-33.3403625488281

>  <r_i_glide_ecoul>  (8) 
-2.75736093521118

>  <r_i_glide_erotb>  (8) 
0.358101084081536

>  <r_i_glide_esite>  (8) 
-0.0352805565541577

>  <r_i_glide_emodel>  (8) 
-47.9086104439475

>  <r_i_glide_energy>  (8) 
-36.0977234840393

>  <r_i_glide_einternal>  (8) 
3.92618846893311

>  <i_i_glide_confnum>  (8) 
112

>  <i_i_glide_posenum>  (8) 
274

>  <r_i_glide_eff_state_penalty>  (8) 
0

$$$$
BDB50174295-17-0000
     RDKit          3D

 65 70  0  0  1  0  0  0  0  0999 V2000
   35.2379   26.9929   86.2307 C   0  0  0  0  0  0  0  0  0  0  0  0
   34.9153   26.5324   84.9523 C   0  0  0  0  0  0  0  0  0  0  0  0
   35.0777   25.1942   84.6095 C   0  0  0  0  0  0  0  0  0  0  0  0
   35.5691   24.2911   85.5485 C   0  0  0  0  0  0  0  0  0  0  0  0
   35.8961   24.7254   86.8327 C   0  0  0  0  0  0  0  0  0  0  0  0
   35.7154   26.0638   87.1713 C   0  0  0  0  0  0  0  0  0  0  0  0
   34.4647   30.0216   87.8359 C   0  0  0  0  0  0  0  0  0  0  0  0
   34.1178   30.4023   86.5813 O   0  0  0  0  0  0  0  0  0  0  0  0
   34.4593   29.3214   85.7669 N   0  0  0  0  0  0  0  0  0  0  0  0
   34.9155   28.4244   86.6209 C   0  0  0  0  0  0  0  0  0  0  0  0
   35.0025   28.8369   87.8737 N   0  0  0  0  0  0  0  0  0  0  0  0
   34.8694   33.9979   91.9414 C   0  0  0  0  0  0  0  0  0  0  0  0
   34.0136   31.5292   91.4581 C   0  0  0  0  0  0  0  0  0  0  0  0
   34.6381   32.8720   90.9314 C   0  0  1  0  0  0  0  0  0  0  0  0
   33.9343   30.4523   90.3247 C   0  0  0  0  0  0  0  0  0  0  0  0
   33.6974   33.3495   89.7938 C   0  0  0  0  0  0  0  0  0  0  0  0
   36.0197   32.5020   90.3406 C   0  0  0  0  0  0  0  0  0  0  0  0
   34.4278   31.0330   88.9768 C   0  0  2  0  0  0  0  0  0  0  0  0
   33.5545   32.2845   88.6765 C   0  0  0  0  0  0  0  0  0  0  0  0
   35.8660   31.5139   89.2011 C   0  0  0  0  0  0  0  0  0  0  0  0
   34.0907   34.3061   93.0225 N   0  0  0  0  0  0  0  0  0  0  0  0
   35.8630   34.8605   91.8554 N   0  0  0  0  0  0  0  0  0  0  0  0
   35.8041   35.7250   92.9305 N   0  0  0  0  0  0  0  0  0  0  0  0
   34.7587   35.3529   93.6085 C   0  0  0  0  0  0  0  0  0  0  0  0
   32.9003   33.6419   93.4970 C   0  0  0  0  0  0  0  0  0  0  0  0
   34.3886   35.8958   94.9051 C   0  0  0  0  0  0  0  0  0  0  0  0
   34.6940   35.2266   96.1001 C   0  0  0  0  0  0  0  0  0  0  0  0
   34.1352   35.7253   97.2679 C   0  0  0  0  0  0  0  0  0  0  0  0
   33.3398   36.8635   97.2904 C   0  0  0  0  0  0  0  0  0  0  0  0
   33.1056   37.5348   96.0996 C   0  0  0  0  0  0  0  0  0  0  0  0
   33.6156   37.0545   94.9056 C   0  0  0  0  0  0  0  0  0  0  0  0
   35.5794   33.9717   96.2240 C   0  0  1  0  0  0  0  0  0  0  0  0
   36.6653   34.2898   96.9298 F   0  0  0  0  0  0  0  0  0  0  0  0
   34.9153   33.0275   96.8919 F   0  0  0  0  0  0  0  0  0  0  0  0
   35.9900   33.4330   95.0772 F   0  0  0  0  0  0  0  0  0  0  0  0
   35.7771   22.5724   85.0886 S   0  0  1  0  0  0  0  0  0  0  0  0
   37.5487   22.5067   84.4082 C   0  0  1  0  0  0  0  0  0  0  0  0
   35.7029   21.7794   86.3227 O   0  0  0  0  0  0  0  0  0  0  0  0
   34.8341   22.3065   83.9947 O   0  0  0  0  0  0  0  0  0  0  0  0
   38.3833   22.8833   85.3767 F   0  0  0  0  0  0  0  0  0  0  0  0
   37.8009   21.2538   84.0299 F   0  0  0  0  0  0  0  0  0  0  0  0
   37.6283   23.3366   83.3681 F   0  0  0  0  0  0  0  0  0  0  0  0
   34.5072   27.2067   84.2132 H   0  0  0  0  0  0  0  0  0  0  0  0
   34.8149   24.8619   83.6159 H   0  0  0  0  0  0  0  0  0  0  0  0
   36.2788   24.0345   87.5705 H   0  0  0  0  0  0  0  0  0  0  0  0
   35.9567   26.3865   88.1736 H   0  0  0  0  0  0  0  0  0  0  0  0
   34.5774   31.1474   92.3114 H   0  0  0  0  0  0  0  0  0  0  0  0
   32.9927   31.6813   91.8020 H   0  0  0  0  0  0  0  0  0  0  0  0
   34.5224   29.5760   90.6031 H   0  0  0  0  0  0  0  0  0  0  0  0
   32.9113   30.0987   90.1856 H   0  0  0  0  0  0  0  0  0  0  0  0
   32.7187   33.6300   90.1860 H   0  0  0  0  0  0  0  0  0  0  0  0
   34.1155   34.2444   89.3546 H   0  0  0  0  0  0  0  0  0  0  0  0
   36.5542   33.3765   89.9624 H   0  0  0  0  0  0  0  0  0  0  0  0
   36.6587   32.0775   91.1184 H   0  0  0  0  0  0  0  0  0  0  0  0
   33.8811   32.7452   87.7523 H   0  0  0  0  0  0  0  0  0  0  0  0
   32.5082   32.0070   88.5365 H   0  0  0  0  0  0  0  0  0  0  0  0
   36.5578   30.6821   89.3522 H   0  0  0  0  0  0  0  0  0  0  0  0
   36.1154   32.0764   88.3108 H   0  0  0  0  0  0  0  0  0  0  0  0
   33.1583   32.6175   93.7523 H   0  0  0  0  0  0  0  0  0  0  0  0
   32.5157   34.1263   94.3925 H   0  0  0  0  0  0  0  0  0  0  0  0
   32.1281   33.6638   92.7278 H   0  0  0  0  0  0  0  0  0  0  0  0
   34.3401   35.1804   98.1523 H   0  0  0  0  0  0  0  0  0  0  0  0
   32.9215   37.2243   98.2191 H   0  0  0  0  0  0  0  0  0  0  0  0
   32.5154   38.4292   96.0909 H   0  0  0  0  0  0  0  0  0  0  0  0
   33.3804   37.5669   93.9858 H   0  0  0  0  0  0  0  0  0  0  0  0
  1  6  2  0
  1  2  1  0
  1 10  1  0
  2  3  2  0
  2 43  1  0
  3  4  1  0
  3 44  1  0
  4  5  2  0
 36  4  1  1
  5  6  1  0
  5 45  1  0
  6 46  1  0
  7 11  2  0
  7  8  1  0
 18  7  1  6
  8  9  1  0
  9 10  2  0
 10 11  1  0
 12 21  1  0
 12 22  2  0
 14 12  1  1
 13 14  1  0
 13 15  1  0
 13 47  1  0
 13 48  1  0
 14 16  1  0
 14 17  1  0
 15 18  1  0
 15 49  1  0
 15 50  1  0
 16 19  1  0
 16 51  1  0
 16 52  1  0
 17 20  1  0
 17 53  1  0
 17 54  1  0
 18 19  1  0
 18 20  1  0
 19 55  1  0
 19 56  1  0
 20 57  1  0
 20 58  1  0
 21 24  1  0
 21 25  1  0
 22 23  1  0
 23 24  2  0
 24 26  1  0
 25 59  1  0
 25 60  1  0
 25 61  1  0
 26 27  2  0
 26 31  1  0
 27 28  1  0
 27 32  1  0
 28 29  2  0
 28 62  1  0
 29 30  1  0
 29 63  1  0
 30 31  2  0
 30 64  1  0
 31 65  1  0
 32 33  1  1
 32 34  1  0
 32 35  1  0
 36 37  1  0
 36 38  2  0
 36 39  2  0
 37 40  1  1
 37 41  1  0
 37 42  1  0
M  END
>  <Name>  (9) 
BDB50174295

>  <Target>  (9) 
11-beta-Hydroxysteroid Dehydrogenase 1 (11-beta-HSD1)

>  <IC50_in_nM>  (9) 
 1.9

>  <Kd_from_ITC>  (9) 
false

>  <Uniprot_ID>  (9) 
P28845

>  <source_organism>  (9) 
Homo sapiens

>  <SourceTag>  (9) 
11betaHSD1

>  <s_i_glide_gridfile>  (9) 
11betahsd1_glide-grid

>  <i_i_glide_lignum>  (9) 
18

>  <i_i_glide_rotatable_bonds>  (9) 
7

>  <r_i_docking_score>  (9) 
-9.0234797308052

>  <r_i_glide_ligand_efficiency>  (9) 
-0.214844755495362

>  <r_i_glide_ligand_efficiency_sa>  (9) 
-0.746806093685555

>  <r_i_glide_ligand_efficiency_ln>  (9) 
-1.90462409957466

>  <r_i_glide_gscore>  (9) 
-9.0234797308052

>  <r_i_glide_lipo>  (9) 
-4.47939011112773

>  <r_i_glide_hbond>  (9) 
0

>  <r_i_glide_metal>  (9) 
-0

>  <r_i_glide_rewards>  (9) 
-2.50160865998439

>  <r_i_glide_evdw>  (9) 
-31.7028408050537

>  <r_i_glide_ecoul>  (9) 
-3.52408576011658

>  <r_i_glide_erotb>  (9) 
0.155886564455806

>  <r_i_glide_esite>  (9) 
-0.0846126198787158

>  <r_i_glide_emodel>  (9) 
-40.0636425784766

>  <r_i_glide_energy>  (9) 
-35.2269265651703

>  <r_i_glide_einternal>  (9) 
5.0933198928833

>  <i_i_glide_confnum>  (9) 
154

>  <i_i_glide_posenum>  (9) 
119

>  <r_i_glide_eff_state_penalty>  (9) 
0

$$$$
BDB50192686-4-0000
     RDKit          3D

 50 52  0  0  1  0  0  0  0  0999 V2000
   34.2885   34.9928   95.5698 O   0  0  0  0  0  0  0  0  0  0  0  0
   34.8465   31.6123   92.5027 C   0  0  0  0  0  0  0  0  0  0  0  0
   34.4060   33.0110   91.9761 C   0  0  2  0  0  0  0  0  0  0  0  0
   35.0767   30.5901   91.3536 C   0  0  0  0  0  0  0  0  0  0  0  0
   33.0849   32.7812   91.1839 C   0  0  0  0  0  0  0  0  0  0  0  0
   35.4943   33.4702   90.9543 C   0  0  0  0  0  0  0  0  0  0  0  0
   34.7318   31.2252   89.9667 C   0  0  1  0  0  0  0  0  0  0  0  0
   33.2639   31.7571   90.0272 C   0  0  0  0  0  0  0  0  0  0  0  0
   35.6649   32.4612   89.7814 C   0  0  0  0  0  0  0  0  0  0  0  0
   34.9156   30.2380   88.7784 C   0  0  0  0  0  0  0  0  0  0  0  0
   35.7154   29.1833   88.9333 N   0  0  0  0  0  0  0  0  0  0  0  0
   34.3544   30.4322   87.7035 O   0  0  0  0  0  0  0  0  0  0  0  0
   34.2522   33.9252   93.1103 N   0  0  0  0  0  0  0  0  0  0  0  0
   33.9756   35.2435   93.1301 C   0  0  0  0  0  0  0  0  0  0  0  0
   33.7152   35.8951   92.1191 O   0  0  0  0  0  0  0  0  0  0  0  0
   33.9845   35.9392   94.5216 C   0  0  2  0  0  0  0  0  0  0  0  0
   34.9153   37.1777   94.5633 C   0  0  0  0  0  0  0  0  0  0  0  0
   32.5745   36.4603   94.8652 C   0  0  0  0  0  0  0  0  0  0  0  0
   35.5887   34.6692   95.9254 C   0  0  0  0  0  0  0  0  0  0  0  0
   36.7023   34.7022   95.0670 C   0  0  0  0  0  0  0  0  0  0  0  0
   37.9831   34.4853   95.5689 C   0  0  0  0  0  0  0  0  0  0  0  0
   38.1439   34.2004   96.9202 C   0  0  0  0  0  0  0  0  0  0  0  0
   37.0429   34.0639   97.7522 C   0  0  0  0  0  0  0  0  0  0  0  0
   35.7686   34.2945   97.2509 C   0  0  0  0  0  0  0  0  0  0  0  0
   39.7153   34.0644   97.5996 Cl  0  0  0  0  0  0  0  0  0  0  0  0
   35.7502   31.7062   93.1063 H   0  0  0  0  0  0  0  0  0  0  0  0
   34.0881   31.2182   93.1815 H   0  0  0  0  0  0  0  0  0  0  0  0
   36.1260   30.2887   91.3729 H   0  0  0  0  0  0  0  0  0  0  0  0
   34.5150   29.6699   91.5306 H   0  0  0  0  0  0  0  0  0  0  0  0
   32.3104   32.4291   91.8652 H   0  0  0  0  0  0  0  0  0  0  0  0
   32.7204   33.7292   90.7836 H   0  0  0  0  0  0  0  0  0  0  0  0
   35.2433   34.4510   90.5498 H   0  0  0  0  0  0  0  0  0  0  0  0
   36.4488   33.6049   91.4668 H   0  0  0  0  0  0  0  0  0  0  0  0
   32.5629   30.9293   90.1520 H   0  0  0  0  0  0  0  0  0  0  0  0
   32.9886   32.2365   89.0857 H   0  0  0  0  0  0  0  0  0  0  0  0
   35.4514   32.9643   88.8356 H   0  0  0  0  0  0  0  0  0  0  0  0
   36.7102   32.1502   89.7206 H   0  0  0  0  0  0  0  0  0  0  0  0
   36.1819   29.0149   89.8103 H   0  0  0  0  0  0  0  0  0  0  0  0
   35.8849   28.5647   88.1529 H   0  0  0  0  0  0  0  0  0  0  0  0
   34.4067   33.5055   94.0156 H   0  0  0  0  0  0  0  0  0  0  0  0
   34.5111   38.0290   94.0170 H   0  0  0  0  0  0  0  0  0  0  0  0
   35.0772   37.5167   95.5900 H   0  0  0  0  0  0  0  0  0  0  0  0
   35.8894   36.9673   94.1332 H   0  0  0  0  0  0  0  0  0  0  0  0
   32.2202   37.2054   94.1513 H   0  0  0  0  0  0  0  0  0  0  0  0
   31.8399   35.6599   94.8988 H   0  0  0  0  0  0  0  0  0  0  0  0
   32.5615   36.9338   95.8476 H   0  0  0  0  0  0  0  0  0  0  0  0
   36.6040   34.9244   94.0179 H   0  0  0  0  0  0  0  0  0  0  0  0
   38.8453   34.5633   94.9231 H   0  0  0  0  0  0  0  0  0  0  0  0
   37.1860   33.8008   98.7883 H   0  0  0  0  0  0  0  0  0  0  0  0
   34.9114   34.2215   97.9013 H   0  0  0  0  0  0  0  0  0  0  0  0
 16  1  1  1
  1 19  1  0
  2  3  1  0
  2  4  1  0
  2 26  1  0
  2 27  1  0
  3  5  1  0
  3 13  1  1
  3  6  1  0
  4  7  1  0
  4 28  1  0
  4 29  1  0
  5  8  1  0
  5 30  1  0
  5 31  1  0
  6  9  1  0
  6 32  1  0
  6 33  1  0
  7  8  1  0
  7  9  1  0
  7 10  1  6
  8 34  1  0
  8 35  1  0
  9 36  1  0
  9 37  1  0
 10 11  1  0
 10 12  2  0
 11 38  1  0
 11 39  1  0
 13 14  1  0
 13 40  1  0
 14 15  2  0
 14 16  1  0
 16 17  1  0
 16 18  1  0
 17 41  1  0
 17 42  1  0
 17 43  1  0
 18 44  1  0
 18 45  1  0
 18 46  1  0
 19 20  2  0
 19 24  1  0
 20 21  1  0
 20 47  1  0
 21 22  2  0
 21 48  1  0
 22 23  1  0
 22 25  1  0
 23 24  2  0
 23 49  1  0
 24 50  1  0
M  END
>  <Name>  (10) 
BDB50192686

>  <Target>  (10) 
11-beta-Hydroxysteroid Dehydrogenase 1 (11-beta-HSD1)

>  <IC50_in_nM>  (10) 
 450

>  <Kd_from_ITC>  (10) 
false

>  <Uniprot_ID>  (10) 
P28845

>  <source_organism>  (10) 
Homo sapiens

>  <SourceTag>  (10) 
11betaHSD1

>  <s_i_glide_gridfile>  (10) 
11betahsd1_glide-grid

>  <i_i_glide_lignum>  (10) 
5

>  <i_i_glide_rotatable_bonds>  (10) 
6

>  <r_i_docking_score>  (10) 
-9.69046990108318

>  <r_i_glide_ligand_efficiency>  (10) 
-0.387618796043327

>  <r_i_glide_ligand_efficiency_sa>  (10) 
-1.13340423407931

>  <r_i_glide_ligand_efficiency_ln>  (10) 
-2.29693176650581

>  <r_i_glide_gscore>  (10) 
-9.69046990108318

>  <r_i_glide_lipo>  (10) 
-4.75490866519214

>  <r_i_glide_hbond>  (10) 
-0.163947146689681

>  <r_i_glide_metal>  (10) 
-0

>  <r_i_glide_rewards>  (10) 
-2.10864805920312

>  <r_i_glide_evdw>  (10) 
-48.0134811401367

>  <r_i_glide_ecoul>  (10) 
-5.60049915313721

>  <r_i_glide_erotb>  (10) 
0.577782899979166

>  <r_i_glide_esite>  (10) 
0

>  <r_i_glide_emodel>  (10) 
-82.1606062950934

>  <r_i_glide_energy>  (10) 
-53.6139802932739

>  <r_i_glide_einternal>  (10) 
3.0081672668457

>  <i_i_glide_confnum>  (10) 
4

>  <i_i_glide_posenum>  (10) 
98

>  <r_i_glide_eff_state_penalty>  (10) 
0

$$$$
BDB50195483-29-0000
     RDKit          3D

 45 48  0  0  1  0  0  0  0  0999 V2000
   34.6251   36.8039   94.8622 C   0  0  0  0  0  0  0  0  0  0  0  0
   33.5432   35.8384   95.4134 C   0  0  2  0  0  0  0  0  0  0  0  0
   35.9374   36.0602   94.5014 C   0  0  1  0  0  0  0  0  0  0  0  0
   34.1040   35.1309   96.6669 C   0  0  0  0  0  0  0  0  0  0  0  0
   36.4525   35.3489   95.7780 C   0  0  0  0  0  0  0  0  0  0  0  0
   35.4200   34.3600   96.3546 C   0  0  2  0  0  0  0  0  0  0  0  0
   35.6039   34.9747   93.4380 C   0  0  0  0  0  0  0  0  0  0  0  0
   34.5388   33.9361   93.9332 C   0  0  2  0  0  0  0  0  0  0  0  0
   33.2707   34.7518   94.3439 C   0  0  0  0  0  0  0  0  0  0  0  0
   35.1405   33.3246   95.2496 C   0  0  0  0  0  0  0  0  0  0  0  0
   34.1149   32.1766   90.5482 C   0  0  0  0  0  0  0  0  0  0  0  0
   35.3409   31.5049   90.5316 C   0  0  0  0  0  0  0  0  0  0  0  0
   35.5950   30.5069   89.6039 C   0  0  0  0  0  0  0  0  0  0  0  0
   34.6409   30.2045   88.6202 C   0  0  0  0  0  0  0  0  0  0  0  0
   33.4044   30.8733   88.6281 C   0  0  0  0  0  0  0  0  0  0  0  0
   33.1563   31.8695   89.5762 C   0  0  0  0  0  0  0  0  0  0  0  0
   32.1425   30.4638   87.5108 Cl  0  0  0  0  0  0  0  0  0  0  0  0
   37.0978   29.6637   89.7518 Cl  0  0  0  0  0  0  0  0  0  0  0  0
   34.9260   29.2504   87.6404 N   0  0  0  0  0  0  0  0  0  0  0  0
   33.8332   33.1961   91.6250 C   0  0  0  0  0  0  0  0  0  0  0  0
   33.3176   34.2664   91.3019 O   0  0  0  0  0  0  0  0  0  0  0  0
   34.2155   32.8938   92.9029 N   0  0  0  0  0  0  0  0  0  0  0  0
   34.2859   31.4732   93.3216 C   0  0  0  0  0  0  0  0  0  0  0  0
   34.2412   37.3212   93.9822 H   0  0  0  0  0  0  0  0  0  0  0  0
   34.8310   37.5886   95.5930 H   0  0  0  0  0  0  0  0  0  0  0  0
   32.6269   36.3801   95.6538 H   0  0  0  0  0  0  0  0  0  0  0  0
   36.6881   36.7572   94.1281 H   0  0  0  0  0  0  0  0  0  0  0  0
   34.2824   35.8599   97.4585 H   0  0  0  0  0  0  0  0  0  0  0  0
   33.3213   34.4683   97.0519 H   0  0  0  0  0  0  0  0  0  0  0  0
   37.3915   34.8359   95.5624 H   0  0  0  0  0  0  0  0  0  0  0  0
   36.6918   36.0652   96.5516 H   0  0  0  0  0  0  0  0  0  0  0  0
   35.8046   33.8770   97.2544 H   0  0  0  0  0  0  0  0  0  0  0  0
   36.5155   34.4501   93.1511 H   0  0  0  0  0  0  0  0  0  0  0  0
   35.2666   35.4764   92.5310 H   0  0  0  0  0  0  0  0  0  0  0  0
   32.8190   35.2416   93.4846 H   0  0  0  0  0  0  0  0  0  0  0  0
   32.5152   34.0644   94.7101 H   0  0  0  0  0  0  0  0  0  0  0  0
   34.5156   32.5510   95.6675 H   0  0  0  0  0  0  0  0  0  0  0  0
   36.0747   32.8111   95.0146 H   0  0  0  0  0  0  0  0  0  0  0  0
   36.1018   31.7308   91.2669 H   0  0  0  0  0  0  0  0  0  0  0  0
   32.2010   32.3761   89.5763 H   0  0  0  0  0  0  0  0  0  0  0  0
   35.8228   28.7907   87.7462 H   0  0  0  0  0  0  0  0  0  0  0  0
   34.1512   28.6792   87.3393 H   0  0  0  0  0  0  0  0  0  0  0  0
   33.9151   30.7657   92.5792 H   0  0  0  0  0  0  0  0  0  0  0  0
   35.3126   31.1929   93.5588 H   0  0  0  0  0  0  0  0  0  0  0  0
   33.6744   31.2921   94.1994 H   0  0  0  0  0  0  0  0  0  0  0  0
  1  2  1  0
  1  3  1  0
  1 24  1  0
  1 25  1  0
  2  4  1  0
  2  9  1  0
  2 26  1  1
  3  5  1  0
  3  7  1  0
  3 27  1  6
  4  6  1  0
  4 28  1  0
  4 29  1  0
  5  6  1  0
  5 30  1  0
  5 31  1  0
  6 10  1  0
  6 32  1  1
  7  8  1  0
  7 33  1  0
  7 34  1  0
  8 10  1  0
  8  9  1  0
  8 22  1  6
  9 35  1  0
  9 36  1  0
 10 37  1  0
 10 38  1  0
 11 12  2  0
 11 16  1  0
 11 20  1  0
 12 13  1  0
 12 39  1  0
 13 14  2  0
 13 18  1  0
 14 15  1  0
 14 19  1  0
 15 16  2  0
 15 17  1  0
 16 40  1  0
 19 41  1  0
 19 42  1  0
 20 21  2  0
 20 22  1  0
 22 23  1  0
 23 43  1  0
 23 44  1  0
 23 45  1  0
M  END
>  <Name>  (11) 
BDB50195483

>  <Target>  (11) 
11-beta-Hydroxysteroid Dehydrogenase 1 (11-beta-HSD1)

>  <Ki_in_nM>  (11) 
10

>  <IC50_in_nM>  (11) 
 100

>  <Kd_from_ITC>  (11) 
false

>  <Uniprot_ID>  (11) 
P28845

>  <source_organism>  (11) 
Homo sapiens

>  <SourceTag>  (11) 
11betaHSD1

>  <s_i_glide_gridfile>  (11) 
11betahsd1_glide-grid

>  <i_i_glide_lignum>  (11) 
30

>  <i_i_glide_rotatable_bonds>  (11) 
3

>  <r_i_docking_score>  (11) 
-9.09690479237108

>  <r_i_glide_ligand_efficiency>  (11) 
-0.395517599668308

>  <r_i_glide_ligand_efficiency_sa>  (11) 
-1.12479944047125

>  <r_i_glide_ligand_efficiency_ln>  (11) 
-2.1997140649675

>  <r_i_glide_gscore>  (11) 
-9.09690479237108

>  <r_i_glide_lipo>  (11) 
-4.81795742164663

>  <r_i_glide_hbond>  (11) 
-0.147522776033166

>  <r_i_glide_metal>  (11) 
-0

>  <r_i_glide_rewards>  (11) 
-2.38524235258453

>  <r_i_glide_evdw>  (11) 
-37.6442489624023

>  <r_i_glide_ecoul>  (11) 
-2.15297031402588

>  <r_i_glide_erotb>  (11) 
0.458975753117241

>  <r_i_glide_esite>  (11) 
0

>  <r_i_glide_emodel>  (11) 
-55.5788000004515

>  <r_i_glide_energy>  (11) 
-39.7972192764282

>  <r_i_glide_einternal>  (11) 
7.59593677520752

>  <i_i_glide_confnum>  (11) 
35

>  <i_i_glide_posenum>  (11) 
264

>  <r_i_glide_eff_state_penalty>  (11) 
0

$$$$
BDB50195486-33-0000
     RDKit          3D

 48 49  0  0  1  0  0  0  0  0999 V2000
   33.9586   33.6867   91.6347 C   0  0  0  0  0  0  0  0  0  0  0  0
   34.7676   32.5666   91.8830 C   0  0  0  0  0  0  0  0  0  0  0  0
   34.6358   31.3924   91.1390 C   0  0  0  0  0  0  0  0  0  0  0  0
   33.6883   31.3133   90.1093 C   0  0  0  0  0  0  0  0  0  0  0  0
   32.8947   32.4302   89.8240 C   0  0  0  0  0  0  0  0  0  0  0  0
   33.0526   33.5970   90.5689 C   0  0  0  0  0  0  0  0  0  0  0  0
   35.6858   30.0641   91.4986 Cl  0  0  0  0  0  0  0  0  0  0  0  0
   31.7159   32.4201   88.5528 Cl  0  0  0  0  0  0  0  0  0  0  0  0
   33.5611   30.1438   89.3528 N   0  0  0  0  0  0  0  0  0  0  0  0
   34.1245   35.0253   92.3485 C   0  0  0  0  0  0  0  0  0  0  0  0
   33.7152   36.0364   91.7674 O   0  0  0  0  0  0  0  0  0  0  0  0
   34.8106   35.1304   93.5229 N   0  0  0  0  0  0  0  0  0  0  0  0
   34.7821   34.1138   94.6118 C   0  0  1  0  0  0  0  0  0  0  0  0
   36.2586   33.8446   94.9845 C   0  0  0  0  0  0  0  0  0  0  0  0
   36.9311   35.0783   95.4038 N   0  0  0  0  0  0  0  0  0  0  0  0
   36.9011   36.0502   94.3031 C   0  0  0  0  0  0  0  0  0  0  0  0
   35.4686   36.4323   93.8364 C   0  0  2  0  0  0  0  0  0  0  0  0
   33.9423   34.4637   95.8616 C   0  0  0  0  0  0  0  0  0  0  0  0
   34.7248   37.3867   94.7977 C   0  0  0  0  0  0  0  0  0  0  0  0
   38.3088   34.7780   95.8101 C   0  0  0  0  0  0  0  0  0  0  0  0
   38.4567   34.3701   97.2837 C   0  0  0  0  0  0  0  0  0  0  0  0
   39.7381   34.4641   97.7039 O   0  0  0  0  0  0  0  0  0  0  0  0
   37.4956   34.0640   97.9939 O   0  0  0  0  0  0  0  0  0  0  0  0
   40.1034   34.2129   99.0590 C   0  0  0  0  0  0  0  0  0  0  0  0
   39.6898   35.3519  100.0072 C   0  0  0  0  0  0  0  0  0  0  0  0
   35.5523   32.5919   92.6192 H   0  0  0  0  0  0  0  0  0  0  0  0
   32.4789   34.4636   90.2885 H   0  0  0  0  0  0  0  0  0  0  0  0
   33.3099   30.2922   88.3863 H   0  0  0  0  0  0  0  0  0  0  0  0
   34.2544   29.4332   89.5418 H   0  0  0  0  0  0  0  0  0  0  0  0
   34.3358   33.1884   94.2540 H   0  0  0  0  0  0  0  0  0  0  0  0
   36.7958   33.4381   94.1263 H   0  0  0  0  0  0  0  0  0  0  0  0
   36.3130   33.0783   95.7593 H   0  0  0  0  0  0  0  0  0  0  0  0
   37.4763   36.9425   94.5539 H   0  0  0  0  0  0  0  0  0  0  0  0
   37.3924   35.5948   93.4465 H   0  0  0  0  0  0  0  0  0  0  0  0
   35.5907   37.0072   92.9188 H   0  0  0  0  0  0  0  0  0  0  0  0
   34.1153   33.7090   96.6295 H   0  0  0  0  0  0  0  0  0  0  0  0
   34.2276   35.3859   96.3525 H   0  0  0  0  0  0  0  0  0  0  0  0
   32.8743   34.4756   95.6415 H   0  0  0  0  0  0  0  0  0  0  0  0
   34.9156   38.4291   94.5534 H   0  0  0  0  0  0  0  0  0  0  0  0
   33.6455   37.2354   94.7572 H   0  0  0  0  0  0  0  0  0  0  0  0
   35.0393   37.2576   95.8325 H   0  0  0  0  0  0  0  0  0  0  0  0
   38.9158   35.6635   95.6715 H   0  0  0  0  0  0  0  0  0  0  0  0
   38.7531   34.0097   95.1750 H   0  0  0  0  0  0  0  0  0  0  0  0
   41.1867   34.0977   99.0942 H   0  0  0  0  0  0  0  0  0  0  0  0
   39.6845   33.2639   99.3954 H   0  0  0  0  0  0  0  0  0  0  0  0
   40.0333   35.1505  101.0219 H   0  0  0  0  0  0  0  0  0  0  0  0
   38.6078   35.4673  100.0453 H   0  0  0  0  0  0  0  0  0  0  0  0
   40.1154   36.3062   99.6989 H   0  0  0  0  0  0  0  0  0  0  0  0
  1  6  2  0
  1  2  1  0
  1 10  1  0
  2  3  2  0
  2 26  1  0
  3  7  1  0
  3  4  1  0
  4  9  1  0
  4  5  2  0
  5  8  1  0
  5  6  1  0
  6 27  1  0
  9 28  1  0
  9 29  1  0
 10 11  2  0
 10 12  1  0
 12 13  1  0
 12 17  1  0
 13 14  1  0
 13 18  1  0
 13 30  1  6
 14 15  1  0
 14 31  1  0
 14 32  1  0
 15 16  1  0
 15 20  1  0
 16 17  1  0
 16 33  1  0
 16 34  1  0
 17 19  1  0
 17 35  1  6
 18 36  1  0
 18 37  1  0
 18 38  1  0
 19 39  1  0
 19 40  1  0
 19 41  1  0
 20 21  1  0
 20 42  1  0
 20 43  1  0
 21 22  1  0
 21 23  2  0
 22 24  1  0
 24 25  1  0
 24 44  1  0
 24 45  1  0
 25 46  1  0
 25 47  1  0
 25 48  1  0
M  END
>  <Name>  (12) 
BDB50195486

>  <Target>  (12) 
11-beta-Hydroxysteroid Dehydrogenase 1 (11-beta-HSD1)

>  <Ki_in_nM>  (12) 
13

>  <IC50_in_nM>  (12) 
 490

>  <Kd_from_ITC>  (12) 
false

>  <Uniprot_ID>  (12) 
P28845

>  <source_organism>  (12) 
Homo sapiens

>  <SourceTag>  (12) 
11betaHSD1

>  <s_i_glide_gridfile>  (12) 
11betahsd1_glide-grid

>  <i_i_glide_lignum>  (12) 
34

>  <i_i_glide_rotatable_bonds>  (12) 
6

>  <r_i_docking_score>  (12) 
-8.49111918062196

>  <r_i_glide_ligand_efficiency>  (12) 
-0.339644767224879

>  <r_i_glide_ligand_efficiency_sa>  (12) 
-0.99312732299114

>  <r_i_glide_ligand_efficiency_ln>  (12) 
-2.01264970411572

>  <r_i_glide_gscore>  (12) 
-8.49111918062196

>  <r_i_glide_lipo>  (12) 
-4.1086788614819

>  <r_i_glide_hbond>  (12) 
-0.228706694802329

>  <r_i_glide_metal>  (12) 
-0

>  <r_i_glide_rewards>  (12) 
-2.05445341964326

>  <r_i_glide_evdw>  (12) 
-39.8932037353516

>  <r_i_glide_ecoul>  (12) 
-5.00485849380493

>  <r_i_glide_erotb>  (12) 
0.646108756143842

>  <r_i_glide_esite>  (12) 
0

>  <r_i_glide_emodel>  (12) 
-61.1624940967017

>  <r_i_glide_energy>  (12) 
-44.8980622291565

>  <r_i_glide_einternal>  (12) 
6.54899263381958

>  <i_i_glide_confnum>  (12) 
45

>  <i_i_glide_posenum>  (12) 
380

>  <r_i_glide_eff_state_penalty>  (12) 
0

$$$$
BDB50195497-34-0000
     RDKit          3D

 47 49  0  0  1  0  0  0  0  0999 V2000
   34.8534   34.4231   91.6863 C   0  0  0  0  0  0  0  0  0  0  0  0
   36.0496   34.0753   91.0710 C   0  0  0  0  0  0  0  0  0  0  0  0
   36.0821   33.1711   90.0270 C   0  0  0  0  0  0  0  0  0  0  0  0
   34.8908   32.5802   89.5736 C   0  0  0  0  0  0  0  0  0  0  0  0
   33.6694   32.9522   90.1635 C   0  0  0  0  0  0  0  0  0  0  0  0
   33.6571   33.8753   91.2117 C   0  0  0  0  0  0  0  0  0  0  0  0
   37.6386   32.8632   89.3523 Cl  0  0  0  0  0  0  0  0  0  0  0  0
   32.1569   32.2926   89.6294 Cl  0  0  0  0  0  0  0  0  0  0  0  0
   34.9154   31.6293   88.5521 N   0  0  0  0  0  0  0  0  0  0  0  0
   34.8606   35.3696   92.8546 C   0  0  0  0  0  0  0  0  0  0  0  0
   34.3376   36.4638   92.6808 O   0  0  0  0  0  0  0  0  0  0  0  0
   35.3991   34.9538   94.0422 N   0  0  0  0  0  0  0  0  0  0  0  0
   35.7757   33.5241   94.1901 C   0  0  1  0  0  0  0  0  0  0  0  0
   36.7697   33.2698   95.3528 C   0  0  0  0  0  0  0  0  0  0  0  0
   36.9800   34.3559   96.3048 N   0  0  0  0  0  0  0  0  0  0  0  0
   35.7579   35.1099   96.5471 C   0  0  0  0  0  0  0  0  0  0  0  0
   35.1588   35.7743   95.2733 C   0  0  2  0  0  0  0  0  0  0  0  0
   34.5226   32.7197   94.4405 C   0  0  0  0  0  0  0  0  0  0  0  0
   33.7012   36.2016   95.5898 C   0  0  0  0  0  0  0  0  0  0  0  0
   38.0233   34.2920   97.2160 C   0  0  0  0  0  0  0  0  0  0  0  0
   39.3505   34.3646   96.7887 C   0  0  0  0  0  0  0  0  0  0  0  0
   40.3498   34.4638   97.7524 C   0  0  0  0  0  0  0  0  0  0  0  0
   40.0664   34.3721   99.1010 C   0  0  0  0  0  0  0  0  0  0  0  0
   38.7435   34.1852   99.4466 C   0  0  0  0  0  0  0  0  0  0  0  0
   37.7261   34.1541   98.5368 N   0  0  0  0  0  0  0  0  0  0  0  0
   39.7153   34.3693   95.4451 N   0  0  0  0  0  0  0  0  0  0  0  0
   36.9660   34.5465   91.3809 H   0  0  0  0  0  0  0  0  0  0  0  0
   32.7157   34.1423   91.6712 H   0  0  0  0  0  0  0  0  0  0  0  0
   35.8335   31.4016   88.1968 H   0  0  0  0  0  0  0  0  0  0  0  0
   34.2648   30.8653   88.6637 H   0  0  0  0  0  0  0  0  0  0  0  0
   36.2532   33.1158   93.3024 H   0  0  0  0  0  0  0  0  0  0  0  0
   37.7176   32.9695   94.9106 H   0  0  0  0  0  0  0  0  0  0  0  0
   36.4245   32.4148   95.9364 H   0  0  0  0  0  0  0  0  0  0  0  0
   35.9424   35.8690   97.3051 H   0  0  0  0  0  0  0  0  0  0  0  0
   35.0371   34.4278   97.0016 H   0  0  0  0  0  0  0  0  0  0  0  0
   35.7408   36.6842   95.1130 H   0  0  0  0  0  0  0  0  0  0  0  0
   34.7258   31.6759   94.6726 H   0  0  0  0  0  0  0  0  0  0  0  0
   34.1154   33.2431   95.3023 H   0  0  0  0  0  0  0  0  0  0  0  0
   33.8005   32.7369   93.6271 H   0  0  0  0  0  0  0  0  0  0  0  0
   33.6367   36.6535   96.5806 H   0  0  0  0  0  0  0  0  0  0  0  0
   33.3330   36.9654   94.9058 H   0  0  0  0  0  0  0  0  0  0  0  0
   33.0152   35.3541   95.5798 H   0  0  0  0  0  0  0  0  0  0  0  0
   41.3652   34.5502   97.4393 H   0  0  0  0  0  0  0  0  0  0  0  0
   40.8483   34.4067   99.8459 H   0  0  0  0  0  0  0  0  0  0  0  0
   38.5153   34.0608  100.4929 H   0  0  0  0  0  0  0  0  0  0  0  0
   40.7146   34.4646   95.2423 H   0  0  0  0  0  0  0  0  0  0  0  0
   39.0084   34.4744   94.7330 H   0  0  0  0  0  0  0  0  0  0  0  0
  1  6  2  0
  1  2  1  0
  1 10  1  0
  2  3  2  0
  2 27  1  0
  3  7  1  0
  3  4  1  0
  4  9  1  0
  4  5  2  0
  5  8  1  0
  5  6  1  0
  6 28  1  0
  9 29  1  0
  9 30  1  0
 10 11  2  0
 10 12  1  0
 12 17  1  0
 12 13  1  0
 13 14  1  0
 13 18  1  0
 13 31  1  6
 14 15  1  0
 14 32  1  0
 14 33  1  0
 15 16  1  0
 15 20  1  0
 16 17  1  0
 16 34  1  0
 16 35  1  0
 17 19  1  0
 17 36  1  6
 18 37  1  0
 18 38  1  0
 18 39  1  0
 19 40  1  0
 19 41  1  0
 19 42  1  0
 20 21  2  0
 20 25  1  0
 21 22  1  0
 21 26  1  0
 22 23  2  0
 22 43  1  0
 23 24  1  0
 23 44  1  0
 24 25  2  0
 24 45  1  0
 26 46  1  0
 26 47  1  0
M  END
>  <Name>  (13) 
BDB50195497

>  <Target>  (13) 
11-beta-Hydroxysteroid Dehydrogenase 1 (11-beta-HSD1)

>  <Ki_in_nM>  (13) 
15

>  <IC50_in_nM>  (13) 
 370

>  <Kd_from_ITC>  (13) 
false

>  <Uniprot_ID>  (13) 
P28845

>  <source_organism>  (13) 
Homo sapiens

>  <SourceTag>  (13) 
11betaHSD1

>  <s_i_glide_gridfile>  (13) 
11betahsd1_glide-grid

>  <i_i_glide_lignum>  (13) 
35

>  <i_i_glide_rotatable_bonds>  (13) 
3

>  <r_i_docking_score>  (13) 
-9.73400308544027

>  <r_i_glide_ligand_efficiency>  (13) 
-0.374384734055395

>  <r_i_glide_ligand_efficiency_sa>  (13) 
-1.10911330150631

>  <r_i_glide_ligand_efficiency_ln>  (13) 
-2.28599868474639

>  <r_i_glide_gscore>  (13) 
-9.73400308544027

>  <r_i_glide_lipo>  (13) 
-4.55746746710105

>  <r_i_glide_hbond>  (13) 
-0.448470669275801

>  <r_i_glide_metal>  (13) 
-0

>  <r_i_glide_rewards>  (13) 
-2.47578079467632

>  <r_i_glide_evdw>  (13) 
-23.8783683776855

>  <r_i_glide_ecoul>  (13) 
-9.16271209716797

>  <r_i_glide_erotb>  (13) 
0.377115709736422

>  <r_i_glide_esite>  (13) 
-0.0610746306640542

>  <r_i_glide_emodel>  (13) 
-35.3964869300052

>  <r_i_glide_energy>  (13) 
-33.0410804748535

>  <r_i_glide_einternal>  (13) 
23.3473663330078

>  <i_i_glide_confnum>  (13) 
82

>  <i_i_glide_posenum>  (13) 
91

>  <r_i_glide_eff_state_penalty>  (13) 
0

$$$$
BDB50195499-28-0000
     RDKit          3D

 50 52  0  0  1  0  0  0  0  0999 V2000
   34.2475   32.1777   89.9437 C   0  0  0  0  0  0  0  0  0  0  0  0
   35.5178   31.6027   90.0251 C   0  0  0  0  0  0  0  0  0  0  0  0
   35.8173   30.4312   89.3526 C   0  0  0  0  0  0  0  0  0  0  0  0
   34.9369   29.9331   88.3869 C   0  0  0  0  0  0  0  0  0  0  0  0
   33.7070   30.5838   88.1883 C   0  0  0  0  0  0  0  0  0  0  0  0
   33.3587   31.6788   88.9830 C   0  0  0  0  0  0  0  0  0  0  0  0
   37.3150   29.6638   89.7522 Cl  0  0  0  0  0  0  0  0  0  0  0  0
   32.5781   30.0638   86.9869 Cl  0  0  0  0  0  0  0  0  0  0  0  0
   35.3148   28.8324   87.6112 N   0  0  0  0  0  0  0  0  0  0  0  0
   33.8255   33.2895   90.8835 C   0  0  0  0  0  0  0  0  0  0  0  0
   32.9401   34.0638   90.5130 O   0  0  0  0  0  0  0  0  0  0  0  0
   34.4146   33.3816   92.1185 N   0  0  0  0  0  0  0  0  0  0  0  0
   34.7870   32.1441   92.8739 C   0  0  1  0  0  0  0  0  0  0  0  0
   35.3165   32.4374   94.3002 C   0  0  0  0  0  0  0  0  0  0  0  0
   35.8458   33.7643   94.6220 N   0  0  0  0  0  0  0  0  0  0  0  0
   35.5051   34.8325   93.6809 C   0  0  0  0  0  0  0  0  0  0  0  0
   34.1861   34.6148   92.8977 C   0  0  2  0  0  0  0  0  0  0  0  0
   33.7154   31.0405   92.9324 C   0  0  0  0  0  0  0  0  0  0  0  0
   32.9155   34.5948   93.7662 C   0  0  0  0  0  0  0  0  0  0  0  0
   36.9419   33.8548   95.4567 C   0  0  0  0  0  0  0  0  0  0  0  0
   36.8870   34.4726   96.7226 C   0  0  0  0  0  0  0  0  0  0  0  0
   38.0249   34.4638   97.5328 C   0  0  0  0  0  0  0  0  0  0  0  0
   39.2362   33.9619   97.0661 C   0  0  0  0  0  0  0  0  0  0  0  0
   39.3054   33.4081   95.7928 C   0  0  0  0  0  0  0  0  0  0  0  0
   38.1573   33.3280   95.0101 C   0  0  0  0  0  0  0  0  0  0  0  0
   35.7983   35.1692   97.2026 O   0  0  0  0  0  0  0  0  0  0  0  0
   34.5703   34.4763   97.3523 C   0  0  0  0  0  0  0  0  0  0  0  0
   36.2920   32.0318   90.6420 H   0  0  0  0  0  0  0  0  0  0  0  0
   32.3846   32.1304   88.8558 H   0  0  0  0  0  0  0  0  0  0  0  0
   36.3000   28.5750   87.6388 H   0  0  0  0  0  0  0  0  0  0  0  0
   34.6562   28.0687   87.5794 H   0  0  0  0  0  0  0  0  0  0  0  0
   35.6755   31.7290   92.4202 H   0  0  0  0  0  0  0  0  0  0  0  0
   36.0419   31.6645   94.5609 H   0  0  0  0  0  0  0  0  0  0  0  0
   34.5154   32.2790   95.0130 H   0  0  0  0  0  0  0  0  0  0  0  0
   36.3106   34.8910   92.9463 H   0  0  0  0  0  0  0  0  0  0  0  0
   35.4575   35.7909   94.2000 H   0  0  0  0  0  0  0  0  0  0  0  0
   34.0836   35.4563   92.2096 H   0  0  0  0  0  0  0  0  0  0  0  0
   34.1107   30.1265   93.3523 H   0  0  0  0  0  0  0  0  0  0  0  0
   32.8944   31.3540   93.5682 H   0  0  0  0  0  0  0  0  0  0  0  0
   33.3155   30.7706   91.9581 H   0  0  0  0  0  0  0  0  0  0  0  0
   32.5918   35.6014   94.0312 H   0  0  0  0  0  0  0  0  0  0  0  0
   32.1154   34.0639   93.2539 H   0  0  0  0  0  0  0  0  0  0  0  0
   33.0521   34.0599   94.6945 H   0  0  0  0  0  0  0  0  0  0  0  0
   37.9795   34.8958   98.5208 H   0  0  0  0  0  0  0  0  0  0  0  0
   40.1170   34.0075   97.6890 H   0  0  0  0  0  0  0  0  0  0  0  0
   40.2378   33.0197   95.4135 H   0  0  0  0  0  0  0  0  0  0  0  0
   38.2173   32.8629   94.0383 H   0  0  0  0  0  0  0  0  0  0  0  0
   33.8245   35.1633   97.7521 H   0  0  0  0  0  0  0  0  0  0  0  0
   34.1662   34.0686   96.4401 H   0  0  0  0  0  0  0  0  0  0  0  0
   34.6776   33.6638   98.0649 H   0  0  0  0  0  0  0  0  0  0  0  0
  1  2  2  0
  1 10  1  0
  1  6  1  0
  2  3  1  0
  2 28  1  0
  3  7  1  0
  3  4  2  0
  4  9  1  0
  4  5  1  0
  5  8  1  0
  5  6  2  0
  6 29  1  0
  9 30  1  0
  9 31  1  0
 10 11  2  0
 10 12  1  0
 12 17  1  0
 12 13  1  0
 13 14  1  0
 13 18  1  0
 13 32  1  6
 14 15  1  0
 14 33  1  0
 14 34  1  0
 15 16  1  0
 15 20  1  0
 16 17  1  0
 16 35  1  0
 16 36  1  0
 17 19  1  0
 17 37  1  6
 18 38  1  0
 18 39  1  0
 18 40  1  0
 19 41  1  0
 19 42  1  0
 19 43  1  0
 20 21  2  0
 20 25  1  0
 21 22  1  0
 21 26  1  0
 22 23  2  0
 22 44  1  0
 23 24  1  0
 23 45  1  0
 24 25  2  0
 24 46  1  0
 25 47  1  0
 26 27  1  0
 27 48  1  0
 27 49  1  0
 27 50  1  0
M  END
>  <Name>  (14) 
BDB50195499

>  <Target>  (14) 
11-beta-Hydroxysteroid Dehydrogenase 1 (11-beta-HSD1)

>  <Ki_in_nM>  (14) 
10

>  <IC50_in_nM>  (14) 
 190

>  <Kd_from_ITC>  (14) 
false

>  <Uniprot_ID>  (14) 
P28845

>  <source_organism>  (14) 
Homo sapiens

>  <SourceTag>  (14) 
11betaHSD1

>  <s_i_glide_gridfile>  (14) 
11betahsd1_glide-grid

>  <i_i_glide_lignum>  (14) 
29

>  <i_i_glide_rotatable_bonds>  (14) 
4

>  <r_i_docking_score>  (14) 
-9.26796137064445

>  <r_i_glide_ligand_efficiency>  (14) 
-0.343257828542387

>  <r_i_glide_ligand_efficiency_sa>  (14) 
-1.02977348449584

>  <r_i_glide_ligand_efficiency_ln>  (14) 
-2.15742861280131

>  <r_i_glide_gscore>  (14) 
-9.26796137064445

>  <r_i_glide_lipo>  (14) 
-4.82348575191074

>  <r_i_glide_hbond>  (14) 
-0.32

>  <r_i_glide_metal>  (14) 
-0

>  <r_i_glide_rewards>  (14) 
-1.99197281787443

>  <r_i_glide_evdw>  (14) 
-37.6107025146484

>  <r_i_glide_ecoul>  (14) 
-3.90816140174866

>  <r_i_glide_erotb>  (14) 
0.354117773013068

>  <r_i_glide_esite>  (14) 
-0.0198612378776258

>  <r_i_glide_emodel>  (14) 
-39.5574359380173

>  <r_i_glide_energy>  (14) 
-41.5188639163971

>  <r_i_glide_einternal>  (14) 
13.5602693557739

>  <i_i_glide_confnum>  (14) 
32

>  <i_i_glide_posenum>  (14) 
33

>  <r_i_glide_eff_state_penalty>  (14) 
0

$$$$
BDB50195506-24-0000
     RDKit          3D

 39 42  0  0  1  0  0  0  0  0999 V2000
   33.9533   34.5797   92.2732 C   0  0  0  0  0  0  0  0  0  0  0  0
   34.5949   34.6319   93.6388 C   0  0  0  0  0  0  0  0  0  0  0  0
   35.9346   34.2727   93.8059 C   0  0  0  0  0  0  0  0  0  0  0  0
   36.5187   34.2228   95.0661 C   0  0  0  0  0  0  0  0  0  0  0  0
   35.7691   34.5975   96.1853 C   0  0  0  0  0  0  0  0  0  0  0  0
   34.4592   35.0774   96.0179 C   0  0  0  0  0  0  0  0  0  0  0  0
   33.8766   35.0874   94.7486 C   0  0  0  0  0  0  0  0  0  0  0  0
   33.5244   35.6633   97.3515 Cl  0  0  0  0  0  0  0  0  0  0  0  0
   38.1543   33.6657   95.1985 Cl  0  0  0  0  0  0  0  0  0  0  0  0
   36.3296   34.4663   97.4534 N   0  0  0  0  0  0  0  0  0  0  0  0
   33.3182   35.5710   91.9078 O   0  0  0  0  0  0  0  0  0  0  0  0
   34.1344   33.4748   91.4860 N   0  0  0  0  0  0  0  0  0  0  0  0
   34.5785   30.7408   89.3579 C   0  0  0  0  0  0  0  0  0  0  0  0
   33.3157   30.9675   90.2187 C   0  0  1  0  0  0  0  0  0  0  0  0
   35.6021   31.8780   89.5670 C   0  0  2  0  0  0  0  0  0  0  0  0
   33.7475   31.0784   91.7002 C   0  0  0  0  0  0  0  0  0  0  0  0
   35.9791   31.9290   91.0583 C   0  0  0  0  0  0  0  0  0  0  0  0
   34.7622   32.2111   91.9846 C   0  0  1  0  0  0  0  0  0  0  0  0
   34.9247   33.2171   89.2195 C   0  0  0  0  0  0  0  0  0  0  0  0
   33.6630   33.5251   90.0724 C   0  0  1  0  0  0  0  0  0  0  0  0
   32.7001   32.3290   89.8422 C   0  0  0  0  0  0  0  0  0  0  0  0
   36.5152   33.9816   92.9513 H   0  0  0  0  0  0  0  0  0  0  0  0
   32.8561   35.4267   94.6399 H   0  0  0  0  0  0  0  0  0  0  0  0
   35.6734   34.4527   98.2236 H   0  0  0  0  0  0  0  0  0  0  0  0
   37.1326   33.8569   97.5116 H   0  0  0  0  0  0  0  0  0  0  0  0
   35.0328   29.7798   89.6074 H   0  0  0  0  0  0  0  0  0  0  0  0
   34.3073   30.6702   88.3034 H   0  0  0  0  0  0  0  0  0  0  0  0
   32.5968   30.1606   90.0731 H   0  0  0  0  0  0  0  0  0  0  0  0
   36.4915   31.7503   88.9592 H   0  0  0  0  0  0  0  0  0  0  0  0
   32.8764   31.2637   92.3277 H   0  0  0  0  0  0  0  0  0  0  0  0
   34.1553   30.1241   92.0404 H   0  0  0  0  0  0  0  0  0  0  0  0
   36.4553   30.9900   91.3484 H   0  0  0  0  0  0  0  0  0  0  0  0
   36.7492   32.6861   91.2028 H   0  0  0  0  0  0  0  0  0  0  0  0
   35.0241   32.1871   93.0406 H   0  0  0  0  0  0  0  0  0  0  0  0
   35.6489   34.0241   89.3517 H   0  0  0  0  0  0  0  0  0  0  0  0
   34.6686   33.2370   88.1582 H   0  0  0  0  0  0  0  0  0  0  0  0
   33.1868   34.4585   89.7843 H   0  0  0  0  0  0  0  0  0  0  0  0
   32.3818   32.3105   88.7985 H   0  0  0  0  0  0  0  0  0  0  0  0
   31.7850   32.4827   90.4153 H   0  0  0  0  0  0  0  0  0  0  0  0
  1 11  2  0
  1 12  1  0
  1  2  1  0
  2  7  2  0
  2  3  1  0
  3  4  2  0
  3 22  1  0
  4  5  1  0
  4  9  1  0
  5  6  2  0
  5 10  1  0
  6  7  1  0
  6  8  1  0
  7 23  1  0
 10 24  1  0
 10 25  1  0
 12 18  1  0
 12 20  1  0
 13 14  1  0
 13 15  1  0
 13 26  1  0
 13 27  1  0
 14 16  1  0
 14 21  1  0
 14 28  1  1
 15 17  1  0
 15 19  1  0
 15 29  1  6
 16 18  1  0
 16 30  1  0
 16 31  1  0
 17 18  1  0
 17 32  1  0
 17 33  1  0
 18 34  1  1
 19 20  1  0
 19 35  1  0
 19 36  1  0
 20 21  1  0
 20 37  1  6
 21 38  1  0
 21 39  1  0
M  END
>  <Name>  (15) 
BDB50195506

>  <Target>  (15) 
11-beta-Hydroxysteroid Dehydrogenase 1 (11-beta-HSD1)

>  <Ki_in_nM>  (15) 
4

>  <IC50_in_nM>  (15) 
 41

>  <Kd_from_ITC>  (15) 
false

>  <Uniprot_ID>  (15) 
P28845

>  <source_organism>  (15) 
Homo sapiens

>  <SourceTag>  (15) 
11betaHSD1

>  <s_i_glide_gridfile>  (15) 
11betahsd1_glide-grid

>  <i_i_glide_lignum>  (15) 
25

>  <i_i_glide_rotatable_bonds>  (15) 
2

>  <r_i_docking_score>  (15) 
-8.67609462220404

>  <r_i_glide_ligand_efficiency>  (15) 
-0.413147362962097

>  <r_i_glide_ligand_efficiency_sa>  (15) 
-1.13984224692748

>  <r_i_glide_ligand_efficiency_ln>  (15) 
-2.14514686364001

>  <r_i_glide_gscore>  (15) 
-8.67609462220404

>  <r_i_glide_lipo>  (15) 
-4.08357941105134

>  <r_i_glide_hbond>  (15) 
-0.0634049678716079

>  <r_i_glide_metal>  (15) 
-0

>  <r_i_glide_rewards>  (15) 
-2.71577112793403

>  <r_i_glide_evdw>  (15) 
-33.9266738891602

>  <r_i_glide_ecoul>  (15) 
-3.14206314086914

>  <r_i_glide_erotb>  (15) 
0.354304050241313

>  <r_i_glide_esite>  (15) 
0

>  <r_i_glide_emodel>  (15) 
-57.4594848909037

>  <r_i_glide_energy>  (15) 
-37.0687370300293

>  <r_i_glide_einternal>  (15) 
0.427364498376846

>  <i_i_glide_confnum>  (15) 
7

>  <i_i_glide_posenum>  (15) 
81

>  <r_i_glide_eff_state_penalty>  (15) 
0

$$$$
BDB50202105-26-0000
     RDKit          3D

 57 61  0  0  1  0  0  0  0  0999 V2000
   35.0915   34.8075   94.5459 N   0  0  0  0  0  0  0  0  0  0  0  0
   34.9570   34.6022   95.9810 C   0  0  0  0  0  0  0  0  0  0  0  0
   35.9136   33.4551   96.3417 C   0  0  0  0  0  0  0  0  0  0  0  0
   37.3251   33.8323   96.1475 N   0  0  0  0  0  0  0  0  0  0  0  0
   37.4981   34.2474   94.7401 C   0  0  0  0  0  0  0  0  0  0  0  0
   36.4506   35.2813   94.2575 C   0  0  0  0  0  0  0  0  0  0  0  0
   38.2487   34.0639   97.1683 C   0  0  0  0  0  0  0  0  0  0  0  0
   39.5968   34.2689   96.8816 C   0  0  0  0  0  0  0  0  0  0  0  0
   40.5153   34.4638   97.9037 C   0  0  0  0  0  0  0  0  0  0  0  0
   40.1383   34.4376   99.2349 C   0  0  0  0  0  0  0  0  0  0  0  0
   38.8124   34.2413   99.5409 C   0  0  0  0  0  0  0  0  0  0  0  0
   35.2389   30.4156   89.6010 C   0  0  0  0  0  0  0  0  0  0  0  0
   35.5896   31.0989   90.9433 C   0  0  1  0  0  0  0  0  0  0  0  0
   34.0722   31.1340   88.8866 C   0  0  2  0  0  0  0  0  0  0  0  0
   35.9589   32.5776   90.6531 C   0  0  0  0  0  0  0  0  0  0  0  0
   34.4650   32.6122   88.6692 C   0  0  0  0  0  0  0  0  0  0  0  0
   34.7862   33.3670   89.9910 C   0  0  1  0  0  0  0  0  0  0  0  0
   32.8494   31.1214   89.8273 C   0  0  0  0  0  0  0  0  0  0  0  0
   33.1079   31.8307   91.1882 C   0  0  1  0  0  0  0  0  0  0  0  0
   34.3204   31.0839   91.8396 C   0  0  0  0  0  0  0  0  0  0  0  0
   33.5449   33.3113   90.9479 C   0  0  1  0  0  0  0  0  0  0  0  0
   33.8341   33.9316   92.2437 N   0  0  0  0  0  0  0  0  0  0  0  0
   33.7154   35.2322   92.5557 C   0  0  0  0  0  0  0  0  0  0  0  0
   33.3162   36.0638   91.7523 O   0  0  0  0  0  0  0  0  0  0  0  0
   34.0516   35.6799   93.9892 C   0  0  0  0  0  0  0  0  0  0  0  0
   41.2941   34.5869  100.5112 Cl  0  0  0  0  0  0  0  0  0  0  0  0
   37.8786   34.0638   98.5182 C   0  0  0  0  0  0  0  0  0  0  0  0
   35.1971   35.5098   96.5391 H   0  0  0  0  0  0  0  0  0  0  0  0
   33.9345   34.3243   96.2395 H   0  0  0  0  0  0  0  0  0  0  0  0
   35.7006   32.5626   95.7499 H   0  0  0  0  0  0  0  0  0  0  0  0
   35.6904   33.1603   97.3523 H   0  0  0  0  0  0  0  0  0  0  0  0
   37.4747   33.3522   94.1173 H   0  0  0  0  0  0  0  0  0  0  0  0
   38.4741   34.6953   94.5691 H   0  0  0  0  0  0  0  0  0  0  0  0
   36.5671   35.4363   93.1838 H   0  0  0  0  0  0  0  0  0  0  0  0
   36.6300   36.2468   94.7358 H   0  0  0  0  0  0  0  0  0  0  0  0
   39.9754   34.2355   95.8724 H   0  0  0  0  0  0  0  0  0  0  0  0
   41.5404   34.5417   97.6303 H   0  0  0  0  0  0  0  0  0  0  0  0
   38.5154   34.2038  100.5778 H   0  0  0  0  0  0  0  0  0  0  0  0
   36.1155   30.3889   88.9529 H   0  0  0  0  0  0  0  0  0  0  0  0
   34.9811   29.3692   89.7749 H   0  0  0  0  0  0  0  0  0  0  0  0
   36.4191   30.5801   91.4222 H   0  0  0  0  0  0  0  0  0  0  0  0
   33.8406   30.6487   87.9373 H   0  0  0  0  0  0  0  0  0  0  0  0
   36.2753   33.0679   91.5752 H   0  0  0  0  0  0  0  0  0  0  0  0
   36.8379   32.6153   90.0070 H   0  0  0  0  0  0  0  0  0  0  0  0
   35.3155   32.6736   87.9895 H   0  0  0  0  0  0  0  0  0  0  0  0
   33.6574   33.1324   88.1523 H   0  0  0  0  0  0  0  0  0  0  0  0
   35.0932   34.3916   89.8048 H   0  0  0  0  0  0  0  0  0  0  0  0
   32.0002   31.5930   89.3302 H   0  0  0  0  0  0  0  0  0  0  0  0
   32.5358   30.0910   89.9989 H   0  0  0  0  0  0  0  0  0  0  0  0
   32.2269   31.7828   91.8302 H   0  0  0  0  0  0  0  0  0  0  0  0
   34.0464   30.0633   92.0728 H   0  0  0  0  0  0  0  0  0  0  0  0
   34.5597   31.5084   92.8155 H   0  0  0  0  0  0  0  0  0  0  0  0
   32.7080   33.8468   90.4918 H   0  0  0  0  0  0  0  0  0  0  0  0
   34.2982   33.3542   92.9305 H   0  0  0  0  0  0  0  0  0  0  0  0
   34.3526   36.7297   94.0057 H   0  0  0  0  0  0  0  0  0  0  0  0
   33.1217   35.6105   94.5568 H   0  0  0  0  0  0  0  0  0  0  0  0
   36.8595   33.8844   98.8002 H   0  0  0  0  0  0  0  0  0  0  0  0
  1  2  1  0
  1  6  1  0
  1 25  1  0
  2  3  1  0
  2 28  1  0
  2 29  1  0
  3  4  1  0
  3 30  1  0
  3 31  1  0
  4  7  1  0
  4  5  1  0
  5  6  1  0
  5 32  1  0
  5 33  1  0
  6 34  1  0
  6 35  1  0
  7  8  2  0
  7 27  1  0
  8  9  1  0
  8 36  1  0
  9 10  2  0
  9 37  1  0
 10 11  1  0
 10 26  1  0
 11 27  2  0
 11 38  1  0
 12 13  1  0
 12 14  1  0
 12 39  1  0
 12 40  1  0
 13 15  1  0
 13 20  1  0
 13 41  1  1
 14 16  1  0
 14 18  1  0
 14 42  1  6
 15 17  1  0
 15 43  1  0
 15 44  1  0
 16 17  1  0
 16 45  1  0
 16 46  1  0
 17 21  1  0
 17 47  1  6
 18 19  1  0
 18 48  1  0
 18 49  1  0
 19 21  1  0
 19 20  1  0
 19 50  1  1
 20 51  1  0
 20 52  1  0
 21 22  1  0
 21 53  1  6
 22 23  1  0
 22 54  1  0
 23 24  2  0
 23 25  1  0
 25 55  1  0
 25 56  1  0
 27 57  1  0
M  END
>  <Name>  (16) 
BDB50202105

>  <Target>  (16) 
11-beta-Hydroxysteroid Dehydrogenase 1 (11-beta-HSD1)

>  <Ki_in_nM>  (16) 
5

>  <IC50_in_nM>  (16) 
 210

>  <Kd_from_ITC>  (16) 
false

>  <Uniprot_ID>  (16) 
P28845

>  <source_organism>  (16) 
Homo sapiens

>  <SourceTag>  (16) 
11betaHSD1

>  <s_i_glide_gridfile>  (16) 
11betahsd1_glide-grid

>  <i_i_glide_lignum>  (16) 
27

>  <i_i_glide_rotatable_bonds>  (16) 
5

>  <r_i_docking_score>  (16) 
-8.90765361859696

>  <r_i_glide_ligand_efficiency>  (16) 
-0.329913096985072

>  <r_i_glide_ligand_efficiency_sa>  (16) 
-0.989739289867878

>  <r_i_glide_ligand_efficiency_ln>  (16) 
-2.07355490826219

>  <r_i_glide_gscore>  (16) 
-8.90765361859696

>  <r_i_glide_lipo>  (16) 
-5.01912877428411

>  <r_i_glide_hbond>  (16) 
-0.199116218874184

>  <r_i_glide_metal>  (16) 
-0

>  <r_i_glide_rewards>  (16) 
-2.18874869246818

>  <r_i_glide_evdw>  (16) 
-24.0698432922363

>  <r_i_glide_ecoul>  (16) 
-5.43249368667603

>  <r_i_glide_erotb>  (16) 
0.51770628464274

>  <r_i_glide_esite>  (16) 
0

>  <r_i_glide_emodel>  (16) 
-36.8496171418474

>  <r_i_glide_energy>  (16) 
-29.5023369789124

>  <r_i_glide_einternal>  (16) 
7.23580360412598

>  <i_i_glide_confnum>  (16) 
71

>  <i_i_glide_posenum>  (16) 
188

>  <r_i_glide_eff_state_penalty>  (16) 
0

$$$$
BDB50210886-36-0000
     RDKit          3D

 49 52  0  0  1  0  0  0  0  0999 V2000
   32.9647   30.0638   85.9992 C   0  0  0  0  0  0  0  0  0  0  0  0
   34.0679   29.3192   85.5750 C   0  0  0  0  0  0  0  0  0  0  0  0
   35.0092   28.9112   86.5112 C   0  0  0  0  0  0  0  0  0  0  0  0
   32.8262   30.4600   87.3429 C   0  0  0  0  0  0  0  0  0  0  0  0
   33.8591   30.1542   88.2222 C   0  0  0  0  0  0  0  0  0  0  0  0
   34.9154   29.3984   87.8108 C   0  0  0  0  0  0  0  0  0  0  0  0
   35.7278   29.2639   88.8948 N   0  0  0  0  0  0  0  0  0  0  0  0
   35.2687   29.9621   89.9487 C   0  0  0  0  0  0  0  0  0  0  0  0
   34.0628   30.4665   89.5501 N   0  0  0  0  0  0  0  0  0  0  0  0
   35.8470   30.0638   91.0237 O   0  0  0  0  0  0  0  0  0  0  0  0
   33.0545   31.1697   90.3755 C   0  0  1  0  0  0  0  0  0  0  0  0
   33.3154   31.3313   91.8973 C   0  0  0  0  0  0  0  0  0  0  0  0
   34.4105   32.3477   92.2849 C   0  0  0  0  0  0  0  0  0  0  0  0
   34.1836   33.6182   91.5553 N   0  0  0  0  0  0  0  0  0  0  0  0
   33.9088   33.5354   90.1098 C   0  0  0  0  0  0  0  0  0  0  0  0
   32.7326   32.5933   89.8971 C   0  0  0  0  0  0  0  0  0  0  0  0
   34.1682   34.8124   92.2122 C   0  0  0  0  0  0  0  0  0  0  0  0
   34.8303   34.8531   93.5579 C   0  0  0  0  0  0  0  0  0  0  0  0
   33.7144   35.8594   91.7523 O   0  0  0  0  0  0  0  0  0  0  0  0
   36.1154   34.3190   93.7024 C   0  0  0  0  0  0  0  0  0  0  0  0
   36.7098   34.1950   94.9524 C   0  0  0  0  0  0  0  0  0  0  0  0
   36.0006   34.6341   96.0758 C   0  0  0  0  0  0  0  0  0  0  0  0
   34.7501   35.2497   95.9279 C   0  0  0  0  0  0  0  0  0  0  0  0
   34.1660   35.3682   94.6709 C   0  0  0  0  0  0  0  0  0  0  0  0
   36.5463   34.4204   97.4624 C   0  0  0  0  0  0  0  0  0  0  0  0
   38.0806   33.5361   95.0542 C   0  0  0  0  0  0  0  0  0  0  0  0
   32.2048   30.3398   85.2849 H   0  0  0  0  0  0  0  0  0  0  0  0
   34.1154   28.9857   84.5523 H   0  0  0  0  0  0  0  0  0  0  0  0
   35.7910   28.2410   86.2028 H   0  0  0  0  0  0  0  0  0  0  0  0
   31.9396   30.9948   87.6441 H   0  0  0  0  0  0  0  0  0  0  0  0
   36.5992   28.7539   88.8950 H   0  0  0  0  0  0  0  0  0  0  0  0
   32.1586   30.5775   90.1917 H   0  0  0  0  0  0  0  0  0  0  0  0
   33.5519   30.3784   92.3663 H   0  0  0  0  0  0  0  0  0  0  0  0
   32.3942   31.6638   92.3790 H   0  0  0  0  0  0  0  0  0  0  0  0
   35.4170   32.0102   92.0601 H   0  0  0  0  0  0  0  0  0  0  0  0
   34.2997   32.4572   93.3648 H   0  0  0  0  0  0  0  0  0  0  0  0
   33.6336   34.4638   89.6520 H   0  0  0  0  0  0  0  0  0  0  0  0
   34.7986   33.1538   89.6067 H   0  0  0  0  0  0  0  0  0  0  0  0
   31.8493   32.9812   90.3999 H   0  0  0  0  0  0  0  0  0  0  0  0
   32.4783   32.6212   88.8425 H   0  0  0  0  0  0  0  0  0  0  0  0
   36.6320   33.9372   92.8345 H   0  0  0  0  0  0  0  0  0  0  0  0
   34.2062   35.6051   96.7914 H   0  0  0  0  0  0  0  0  0  0  0  0
   33.1816   35.8058   94.5785 H   0  0  0  0  0  0  0  0  0  0  0  0
   37.5331   34.8638   97.5874 H   0  0  0  0  0  0  0  0  0  0  0  0
   35.8488   34.8639   98.1523 H   0  0  0  0  0  0  0  0  0  0  0  0
   36.6182   33.3575   97.6834 H   0  0  0  0  0  0  0  0  0  0  0  0
   38.2591   32.8638   94.2136 H   0  0  0  0  0  0  0  0  0  0  0  0
   38.8677   34.2906   95.0765 H   0  0  0  0  0  0  0  0  0  0  0  0
   38.1686   32.9207   95.9486 H   0  0  0  0  0  0  0  0  0  0  0  0
  1  2  2  0
  1  4  1  0
  1 27  1  0
  2  3  1  0
  2 28  1  0
  3  6  2  0
  3 29  1  0
  4  5  2  0
  4 30  1  0
  5  9  1  0
  5  6  1  0
  6  7  1  0
  7  8  1  0
  7 31  1  0
  8  9  1  0
  8 10  2  0
  9 11  1  0
 11 16  1  0
 11 12  1  0
 11 32  1  1
 12 13  1  0
 12 33  1  0
 12 34  1  0
 13 14  1  0
 13 35  1  0
 13 36  1  0
 14 15  1  0
 14 17  1  0
 15 16  1  0
 15 37  1  0
 15 38  1  0
 16 39  1  0
 16 40  1  0
 17 18  1  0
 17 19  2  0
 18 20  2  0
 18 24  1  0
 20 21  1  0
 20 41  1  0
 21 22  2  0
 21 26  1  0
 22 23  1  0
 22 25  1  0
 23 24  2  0
 23 42  1  0
 24 43  1  0
 25 44  1  0
 25 45  1  0
 25 46  1  0
 26 47  1  0
 26 48  1  0
 26 49  1  0
M  END
>  <Name>  (17) 
BDB50210886

>  <Target>  (17) 
11-beta-Hydroxysteroid Dehydrogenase 1 (11-beta-HSD1)

>  <Ki_in_nM>  (17) 
100

>  <Kd_from_ITC>  (17) 
false

>  <Uniprot_ID>  (17) 
P28845

>  <source_organism>  (17) 
Homo sapiens

>  <SourceTag>  (17) 
11betaHSD1

>  <s_i_glide_gridfile>  (17) 
11betahsd1_glide-grid

>  <i_i_glide_lignum>  (17) 
37

>  <i_i_glide_rotatable_bonds>  (17) 
3

>  <r_i_docking_score>  (17) 
-8.87130543077926

>  <r_i_glide_ligand_efficiency>  (17) 
-0.341204055029972

>  <r_i_glide_ligand_efficiency_sa>  (17) 
-1.01081567045317

>  <r_i_glide_ligand_efficiency_ln>  (17) 
-2.08339697129114

>  <r_i_glide_gscore>  (17) 
-8.87130543077926

>  <r_i_glide_lipo>  (17) 
-4.01684665847508

>  <r_i_glide_hbond>  (17) 
-0.204130113222825

>  <r_i_glide_metal>  (17) 
-0

>  <r_i_glide_rewards>  (17) 
-3.19308853703375

>  <r_i_glide_evdw>  (17) 
-27.2547340393066

>  <r_i_glide_ecoul>  (17) 
-3.75022101402283

>  <r_i_glide_erotb>  (17) 
0.468029732021144

>  <r_i_glide_esite>  (17) 
0

>  <r_i_glide_emodel>  (17) 
-43.7419640385409

>  <r_i_glide_energy>  (17) 
-31.0049550533295

>  <r_i_glide_einternal>  (17) 
2.45755529403687

>  <i_i_glide_confnum>  (17) 
17

>  <i_i_glide_posenum>  (17) 
350

>  <r_i_glide_eff_state_penalty>  (17) 
0

$$$$
BDB50210890-39-0000
     RDKit          3D

 49 52  0  0  1  0  0  0  0  0999 V2000
   35.3101   35.4391   97.3523 C   0  0  0  0  0  0  0  0  0  0  0  0
   34.2004   36.1982   97.7462 C   0  0  0  0  0  0  0  0  0  0  0  0
   33.3154   36.6724   96.7999 C   0  0  0  0  0  0  0  0  0  0  0  0
   35.5700   35.1989   96.0200 C   0  0  0  0  0  0  0  0  0  0  0  0
   34.6413   35.6051   95.0678 C   0  0  0  0  0  0  0  0  0  0  0  0
   33.5459   36.3623   95.4719 C   0  0  0  0  0  0  0  0  0  0  0  0
   32.5901   36.8638   94.1523 S   0  0  0  0  0  0  0  0  0  0  0  0
   33.6986   36.0047   92.9762 C   0  0  0  0  0  0  0  0  0  0  0  0
   34.6603   35.3089   93.7097 N   0  0  0  0  0  0  0  0  0  0  0  0
   33.5356   36.0638   91.7610 O   0  0  0  0  0  0  0  0  0  0  0  0
   35.6104   34.3005   93.1480 C   0  0  1  0  0  0  0  0  0  0  0  0
   35.4980   32.9155   93.8602 C   0  0  0  0  0  0  0  0  0  0  0  0
   34.1420   32.2496   93.5631 C   0  0  0  0  0  0  0  0  0  0  0  0
   34.1363   31.9741   92.1210 N   0  0  0  0  0  0  0  0  0  0  0  0
   34.1909   33.1855   91.2753 C   0  0  0  0  0  0  0  0  0  0  0  0
   35.5002   33.9514   91.6317 C   0  0  0  0  0  0  0  0  0  0  0  0
   34.7128   30.8246   91.6840 C   0  0  0  0  0  0  0  0  0  0  0  0
   34.5178   30.4571   90.2416 C   0  0  0  0  0  0  0  0  0  0  0  0
   35.3154   30.0638   92.4272 O   0  0  0  0  0  0  0  0  0  0  0  0
   33.2801   30.6962   89.6611 C   0  0  0  0  0  0  0  0  0  0  0  0
   33.0677   30.5340   88.2967 C   0  0  0  0  0  0  0  0  0  0  0  0
   34.1106   30.0369   87.5018 C   0  0  0  0  0  0  0  0  0  0  0  0
   35.3154   29.6638   88.1080 C   0  0  0  0  0  0  0  0  0  0  0  0
   35.5298   29.8823   89.4698 C   0  0  0  0  0  0  0  0  0  0  0  0
   33.9565   29.8744   85.9970 C   0  0  0  0  0  0  0  0  0  0  0  0
   31.8578   30.8944   87.7523 O   0  0  0  0  0  0  0  0  0  0  0  0
   31.3215   32.1183   88.2565 C   0  0  0  0  0  0  0  0  0  0  0  0
   35.9986   35.0522   98.0858 H   0  0  0  0  0  0  0  0  0  0  0  0
   34.0369   36.4638   98.7795 H   0  0  0  0  0  0  0  0  0  0  0  0
   32.4657   37.2638   97.1037 H   0  0  0  0  0  0  0  0  0  0  0  0
   36.4748   34.6690   95.7649 H   0  0  0  0  0  0  0  0  0  0  0  0
   36.6034   34.7112   93.3345 H   0  0  0  0  0  0  0  0  0  0  0  0
   35.5926   32.9632   94.9380 H   0  0  0  0  0  0  0  0  0  0  0  0
   36.3270   32.2696   93.5678 H   0  0  0  0  0  0  0  0  0  0  0  0
   33.3154   32.9263   93.7819 H   0  0  0  0  0  0  0  0  0  0  0  0
   33.9281   31.3561   94.1523 H   0  0  0  0  0  0  0  0  0  0  0  0
   34.0880   33.0027   90.2065 H   0  0  0  0  0  0  0  0  0  0  0  0
   33.2963   33.7491   91.5286 H   0  0  0  0  0  0  0  0  0  0  0  0
   36.3607   33.3530   91.3269 H   0  0  0  0  0  0  0  0  0  0  0  0
   35.5888   34.8528   91.0278 H   0  0  0  0  0  0  0  0  0  0  0  0
   32.4857   31.0649   90.2886 H   0  0  0  0  0  0  0  0  0  0  0  0
   36.1154   29.2638   87.5075 H   0  0  0  0  0  0  0  0  0  0  0  0
   36.4901   29.6438   89.9061 H   0  0  0  0  0  0  0  0  0  0  0  0
   34.5154   30.6483   85.4703 H   0  0  0  0  0  0  0  0  0  0  0  0
   34.3468   28.9068   85.6796 H   0  0  0  0  0  0  0  0  0  0  0  0
   32.9147   29.9193   85.6812 H   0  0  0  0  0  0  0  0  0  0  0  0
   30.5160   32.4638   87.6329 H   0  0  0  0  0  0  0  0  0  0  0  0
   30.9154   32.0107   89.2604 H   0  0  0  0  0  0  0  0  0  0  0  0
   32.0737   32.9096   88.2723 H   0  0  0  0  0  0  0  0  0  0  0  0
  1  2  2  0
  1  4  1  0
  1 28  1  0
  2  3  1  0
  2 29  1  0
  3  6  2  0
  3 30  1  0
  4  5  2  0
  4 31  1  0
  5  9  1  0
  5  6  1  0
  6  7  1  0
  7  8  1  0
  8  9  1  0
  8 10  2  0
  9 11  1  0
 11 16  1  0
 11 12  1  0
 11 32  1  6
 12 13  1  0
 12 33  1  0
 12 34  1  0
 13 14  1  0
 13 35  1  0
 13 36  1  0
 14 15  1  0
 14 17  1  0
 15 16  1  0
 15 37  1  0
 15 38  1  0
 16 39  1  0
 16 40  1  0
 17 18  1  0
 17 19  2  0
 18 20  2  0
 18 24  1  0
 20 21  1  0
 20 41  1  0
 21 22  2  0
 21 26  1  0
 22 23  1  0
 22 25  1  0
 23 24  2  0
 23 42  1  0
 24 43  1  0
 25 44  1  0
 25 45  1  0
 25 46  1  0
 26 27  1  0
 27 47  1  0
 27 48  1  0
 27 49  1  0
M  END
>  <Name>  (18) 
BDB50210890

>  <Target>  (18) 
11-beta-Hydroxysteroid Dehydrogenase 1 (11-beta-HSD1)

>  <Ki_in_nM>  (18) 
170

>  <Kd_from_ITC>  (18) 
false

>  <Uniprot_ID>  (18) 
P28845

>  <source_organism>  (18) 
Homo sapiens

>  <SourceTag>  (18) 
11betaHSD1

>  <s_i_glide_gridfile>  (18) 
11betahsd1_glide-grid

>  <i_i_glide_lignum>  (18) 
40

>  <i_i_glide_rotatable_bonds>  (18) 
4

>  <r_i_docking_score>  (18) 
-9.13257324207478

>  <r_i_glide_ligand_efficiency>  (18) 
-0.338243453410177

>  <r_i_glide_ligand_efficiency_sa>  (18) 
-1.01473035911574

>  <r_i_glide_ligand_efficiency_ln>  (18) 
-2.12591248851804

>  <r_i_glide_gscore>  (18) 
-9.13257324207478

>  <r_i_glide_lipo>  (18) 
-4.8959926380114

>  <r_i_glide_hbond>  (18) 
-0.221816972036692

>  <r_i_glide_metal>  (18) 
-0

>  <r_i_glide_rewards>  (18) 
-2.26107370291871

>  <r_i_glide_evdw>  (18) 
-31.7337055206299

>  <r_i_glide_ecoul>  (18) 
-3.76866793632507

>  <r_i_glide_erotb>  (18) 
0.398295537372285

>  <r_i_glide_esite>  (18) 
0

>  <r_i_glide_emodel>  (18) 
-39.2329504098663

>  <r_i_glide_energy>  (18) 
-35.502373456955

>  <r_i_glide_einternal>  (18) 
5.80815505981445

>  <i_i_glide_confnum>  (18) 
5

>  <i_i_glide_posenum>  (18) 
203

>  <r_i_glide_eff_state_penalty>  (18) 
0

$$$$
BDB50210892-37-0000
     RDKit          3D

 53 56  0  0  1  0  0  0  0  0999 V2000
   35.8950   35.2632   96.9738 C   0  0  0  0  0  0  0  0  0  0  0  0
   34.7054   35.8804   97.3651 C   0  0  0  0  0  0  0  0  0  0  0  0
   33.8057   36.3734   96.4356 C   0  0  0  0  0  0  0  0  0  0  0  0
   36.1805   35.1133   95.6241 C   0  0  0  0  0  0  0  0  0  0  0  0
   35.1980   35.4774   94.7019 C   0  0  0  0  0  0  0  0  0  0  0  0
   34.0727   36.1375   95.1006 C   0  0  0  0  0  0  0  0  0  0  0  0
   33.3727   36.4431   93.9800 N   0  0  0  0  0  0  0  0  0  0  0  0
   33.9754   35.9466   92.8921 C   0  0  0  0  0  0  0  0  0  0  0  0
   35.0924   35.2993   93.3406 N   0  0  0  0  0  0  0  0  0  0  0  0
   33.5459   36.0638   91.7524 O   0  0  0  0  0  0  0  0  0  0  0  0
   35.9577   34.3725   92.5676 C   0  0  1  0  0  0  0  0  0  0  0  0
   36.1164   33.0022   93.2888 C   0  0  0  0  0  0  0  0  0  0  0  0
   34.7224   32.3445   93.4461 C   0  0  0  0  0  0  0  0  0  0  0  0
   34.3502   31.9941   92.0655 N   0  0  0  0  0  0  0  0  0  0  0  0
   34.1513   33.1495   91.1649 C   0  0  0  0  0  0  0  0  0  0  0  0
   35.4772   33.9622   91.1482 C   0  0  0  0  0  0  0  0  0  0  0  0
   34.7625   30.7797   91.6228 C   0  0  0  0  0  0  0  0  0  0  0  0
   34.5283   30.4005   90.1927 C   0  0  0  0  0  0  0  0  0  0  0  0
   35.3163   29.9872   92.3641 O   0  0  0  0  0  0  0  0  0  0  0  0
   33.2772   30.6147   89.6421 C   0  0  0  0  0  0  0  0  0  0  0  0
   33.0551   30.4932   88.2740 C   0  0  0  0  0  0  0  0  0  0  0  0
   34.0956   30.0286   87.4530 C   0  0  0  0  0  0  0  0  0  0  0  0
   35.3154   29.6621   88.0349 C   0  0  0  0  0  0  0  0  0  0  0  0
   35.5414   29.8615   89.3968 C   0  0  0  0  0  0  0  0  0  0  0  0
   33.9235   29.8931   85.9470 C   0  0  0  0  0  0  0  0  0  0  0  0
   31.8415   30.8746   87.7517 O   0  0  0  0  0  0  0  0  0  0  0  0
   31.3184   32.0843   88.3049 C   0  0  0  0  0  0  0  0  0  0  0  0
   32.6312   37.1850   96.8881 C   0  0  0  0  0  0  0  0  0  0  0  0
   36.6120   34.9461   97.7160 H   0  0  0  0  0  0  0  0  0  0  0  0
   34.5157   36.0640   98.4101 H   0  0  0  0  0  0  0  0  0  0  0  0
   37.1334   34.6961   95.3399 H   0  0  0  0  0  0  0  0  0  0  0  0
   32.5371   37.0072   93.9528 H   0  0  0  0  0  0  0  0  0  0  0  0
   36.9153   34.8804   92.4895 H   0  0  0  0  0  0  0  0  0  0  0  0
   36.5911   33.0598   94.2577 H   0  0  0  0  0  0  0  0  0  0  0  0
   36.8104   32.3680   92.7355 H   0  0  0  0  0  0  0  0  0  0  0  0
   33.9772   33.0339   93.8457 H   0  0  0  0  0  0  0  0  0  0  0  0
   34.6821   31.5010   94.1386 H   0  0  0  0  0  0  0  0  0  0  0  0
   33.7960   32.9149   90.1656 H   0  0  0  0  0  0  0  0  0  0  0  0
   33.3299   33.7108   91.6024 H   0  0  0  0  0  0  0  0  0  0  0  0
   36.2515   33.3945   90.6286 H   0  0  0  0  0  0  0  0  0  0  0  0
   35.3504   34.8544   90.5511 H   0  0  0  0  0  0  0  0  0  0  0  0
   32.4932   30.9610   90.2943 H   0  0  0  0  0  0  0  0  0  0  0  0
   36.1137   29.2667   87.4245 H   0  0  0  0  0  0  0  0  0  0  0  0
   36.5129   29.6368   89.8156 H   0  0  0  0  0  0  0  0  0  0  0  0
   34.5668   30.6017   85.4254 H   0  0  0  0  0  0  0  0  0  0  0  0
   34.2115   28.8918   85.6248 H   0  0  0  0  0  0  0  0  0  0  0  0
   32.8948   30.0598   85.6275 H   0  0  0  0  0  0  0  0  0  0  0  0
   30.5154   32.4645   87.7014 H   0  0  0  0  0  0  0  0  0  0  0  0
   30.9157   31.9421   89.3061 H   0  0  0  0  0  0  0  0  0  0  0  0
   32.0750   32.8702   88.3472 H   0  0  0  0  0  0  0  0  0  0  0  0
   32.4841   37.1827   97.9692 H   0  0  0  0  0  0  0  0  0  0  0  0
   32.8763   38.1825   96.5514 H   0  0  0  0  0  0  0  0  0  0  0  0
   31.7165   36.8638   96.3980 H   0  0  0  0  0  0  0  0  0  0  0  0
  1  2  2  0
  1  4  1  0
  1 29  1  0
  2  3  1  0
  2 30  1  0
  3  6  2  0
  3 28  1  0
  4  5  2  0
  4 31  1  0
  5  9  1  0
  5  6  1  0
  6  7  1  0
  7  8  1  0
  7 32  1  0
  8  9  1  0
  8 10  2  0
  9 11  1  0
 11 16  1  0
 11 12  1  0
 11 33  1  6
 12 13  1  0
 12 34  1  0
 12 35  1  0
 13 14  1  0
 13 36  1  0
 13 37  1  0
 14 15  1  0
 14 17  1  0
 15 16  1  0
 15 38  1  0
 15 39  1  0
 16 40  1  0
 16 41  1  0
 17 18  1  0
 17 19  2  0
 18 20  2  0
 18 24  1  0
 20 21  1  0
 20 42  1  0
 21 22  2  0
 21 26  1  0
 22 23  1  0
 22 25  1  0
 23 24  2  0
 23 43  1  0
 24 44  1  0
 25 45  1  0
 25 46  1  0
 25 47  1  0
 26 27  1  0
 27 48  1  0
 27 49  1  0
 27 50  1  0
 28 51  1  0
 28 52  1  0
 28 53  1  0
M  END
>  <Name>  (19) 
BDB50210892

>  <Target>  (19) 
11-beta-Hydroxysteroid Dehydrogenase 1 (11-beta-HSD1)

>  <Ki_in_nM>  (19) 
140

>  <Kd_from_ITC>  (19) 
false

>  <Uniprot_ID>  (19) 
P28845

>  <source_organism>  (19) 
Homo sapiens

>  <SourceTag>  (19) 
11betaHSD1

>  <s_i_glide_gridfile>  (19) 
11betahsd1_glide-grid

>  <i_i_glide_lignum>  (19) 
38

>  <i_i_glide_rotatable_bonds>  (19) 
4

>  <r_i_docking_score>  (19) 
-9.34374881147375

>  <r_i_glide_ligand_efficiency>  (19) 
-0.333705314695491

>  <r_i_glide_ligand_efficiency_sa>  (19) 
-1.01332587733509

>  <r_i_glide_ligand_efficiency_ln>  (19) 
-2.15681157007425

>  <r_i_glide_gscore>  (19) 
-9.34374881147375

>  <r_i_glide_lipo>  (19) 
-4.50128113879301

>  <r_i_glide_hbond>  (19) 
-0.222379539419497

>  <r_i_glide_metal>  (19) 
-0

>  <r_i_glide_rewards>  (19) 
-2.77681663845649

>  <r_i_glide_evdw>  (19) 
-31.7918090820312

>  <r_i_glide_ecoul>  (19) 
-4.38456249237061

>  <r_i_glide_erotb>  (19) 
0.404003333152407

>  <r_i_glide_esite>  (19) 
0

>  <r_i_glide_emodel>  (19) 
-32.7549022141083

>  <r_i_glide_energy>  (19) 
-36.1763715744019

>  <r_i_glide_einternal>  (19) 
9.37105369567871

>  <i_i_glide_confnum>  (19) 
49

>  <i_i_glide_posenum>  (19) 
132

>  <r_i_glide_eff_state_penalty>  (19) 
0

$$$$
BDB50216916-35-0000
     RDKit          3D

 42 43  0  0  1  0  0  0  0  0999 V2000
   35.0385   35.0080   95.2788 C   0  0  2  0  0  0  0  0  0  0  0  0
   36.3295   35.1471   96.1415 C   0  0  0  0  0  0  0  0  0  0  0  0
   35.1260   33.8304   94.5260 O   0  0  0  0  0  0  0  0  0  0  0  0
   34.9518   36.0535   94.1624 C   0  0  0  0  0  0  0  0  0  0  0  0
   35.0255   35.4240   92.9443 N   0  0  0  0  0  0  0  0  0  0  0  0
   35.1398   34.1859   93.2121 C   0  0  0  0  0  0  0  0  0  0  0  0
   34.8444   37.2636   94.3422 O   0  0  0  0  0  0  0  0  0  0  0  0
   35.3147   33.1199   92.3540 N   0  0  0  0  0  0  0  0  0  0  0  0
   35.4354   33.2533   90.9035 C   0  0  2  0  0  0  0  0  0  0  0  0
   35.2076   31.8797   90.2533 C   0  0  0  0  0  0  0  0  0  0  0  0
   34.0440   31.5689   89.5136 C   0  0  0  0  0  0  0  0  0  0  0  0
   33.9554   30.3228   88.8723 C   0  0  0  0  0  0  0  0  0  0  0  0
   34.9878   29.3919   88.9679 C   0  0  0  0  0  0  0  0  0  0  0  0
   36.1139   29.6823   89.7300 C   0  0  0  0  0  0  0  0  0  0  0  0
   36.2169   30.9118   90.3718 C   0  0  0  0  0  0  0  0  0  0  0  0
   36.7707   33.8918   90.4664 C   0  0  0  0  0  0  0  0  0  0  0  0
   33.7214   34.9468   96.1087 C   0  0  0  0  0  0  0  0  0  0  0  0
   33.4241   36.1640   97.0109 C   0  0  0  0  0  0  0  0  0  0  0  0
   37.6772   35.1664   95.3902 C   0  0  0  0  0  0  0  0  0  0  0  0
   32.8566   32.5343   89.4055 C   0  0  1  0  0  0  0  0  0  0  0  0
   31.7691   31.9629   88.8798 F   0  0  0  0  0  0  0  0  0  0  0  0
   32.5179   32.9872   90.6123 F   0  0  0  0  0  0  0  0  0  0  0  0
   33.1877   33.5660   88.6323 F   0  0  0  0  0  0  0  0  0  0  0  0
   36.3558   34.3271   96.8613 H   0  0  0  0  0  0  0  0  0  0  0  0
   36.2623   36.0549   96.7394 H   0  0  0  0  0  0  0  0  0  0  0  0
   35.2561   32.1840   92.7225 H   0  0  0  0  0  0  0  0  0  0  0  0
   34.6625   33.9477   90.5747 H   0  0  0  0  0  0  0  0  0  0  0  0
   33.0864   30.0672   88.2844 H   0  0  0  0  0  0  0  0  0  0  0  0
   34.9153   28.4419   88.4575 H   0  0  0  0  0  0  0  0  0  0  0  0
   36.9141   28.9605   89.8037 H   0  0  0  0  0  0  0  0  0  0  0  0
   37.1047   31.1192   90.9517 H   0  0  0  0  0  0  0  0  0  0  0  0
   36.7826   34.0605   89.3896 H   0  0  0  0  0  0  0  0  0  0  0  0
   36.9247   34.8583   90.9493 H   0  0  0  0  0  0  0  0  0  0  0  0
   37.6328   33.2704   90.7027 H   0  0  0  0  0  0  0  0  0  0  0  0
   32.8695   34.7809   95.4449 H   0  0  0  0  0  0  0  0  0  0  0  0
   33.7629   34.0645   96.7488 H   0  0  0  0  0  0  0  0  0  0  0  0
   32.5003   36.0209   97.5703 H   0  0  0  0  0  0  0  0  0  0  0  0
   34.2132   36.3178   97.7445 H   0  0  0  0  0  0  0  0  0  0  0  0
   33.3096   37.0850   96.4378 H   0  0  0  0  0  0  0  0  0  0  0  0
   38.5126   35.2108   96.0896 H   0  0  0  0  0  0  0  0  0  0  0  0
   37.7550   36.0380   94.7387 H   0  0  0  0  0  0  0  0  0  0  0  0
   37.8130   34.2739   94.7791 H   0  0  0  0  0  0  0  0  0  0  0  0
  1  2  1  1
  1 17  1  0
  1  3  1  0
  1  4  1  0
  2 19  1  0
  2 24  1  0
  2 25  1  0
  3  6  1  0
  4  5  1  0
  4  7  2  0
  5  6  2  0
  6  8  1  0
  8  9  1  0
  8 26  1  0
  9 16  1  0
  9 10  1  0
  9 27  1  6
 10 15  2  0
 10 11  1  0
 11 12  2  0
 11 20  1  0
 12 13  1  0
 12 28  1  0
 13 14  2  0
 13 29  1  0
 14 15  1  0
 14 30  1  0
 15 31  1  0
 16 32  1  0
 16 33  1  0
 16 34  1  0
 17 18  1  0
 17 35  1  0
 17 36  1  0
 18 37  1  0
 18 38  1  0
 18 39  1  0
 19 40  1  0
 19 41  1  0
 19 42  1  0
 20 21  1  6
 20 22  1  0
 20 23  1  0
M  END
>  <Name>  (20) 
BDB50216916

>  <Target>  (20) 
11-beta-Hydroxysteroid Dehydrogenase 1 (11-beta-HSD1)

>  <Ki_in_nM>  (20) 
19

>  <IC50_in_nM>  (20) 
 95

>  <Kd_from_ITC>  (20) 
false

>  <Uniprot_ID>  (20) 
P28845

>  <source_organism>  (20) 
Homo sapiens

>  <SourceTag>  (20) 
11betaHSD1

>  <s_i_glide_gridfile>  (20) 
11betahsd1_glide-grid

>  <i_i_glide_lignum>  (20) 
36

>  <i_i_glide_rotatable_bonds>  (20) 
6

>  <r_i_docking_score>  (20) 
-8.82899641322685

>  <r_i_glide_ligand_efficiency>  (20) 
-0.383869409270732

>  <r_i_glide_ligand_efficiency_sa>  (20) 
-1.09167353645918

>  <r_i_glide_ligand_efficiency_ln>  (20) 
-2.13493138963155

>  <r_i_glide_gscore>  (20) 
-8.82899641322685

>  <r_i_glide_lipo>  (20) 
-3.70379412756736

>  <r_i_glide_hbond>  (20) 
0

>  <r_i_glide_metal>  (20) 
-0

>  <r_i_glide_rewards>  (20) 
-3.38889575376019

>  <r_i_glide_evdw>  (20) 
-38.6798057556152

>  <r_i_glide_ecoul>  (20) 
-2.1663498878479

>  <r_i_glide_erotb>  (20) 
0.522636239058654

>  <r_i_glide_esite>  (20) 
0

>  <r_i_glide_emodel>  (20) 
-61.1795009649936

>  <r_i_glide_energy>  (20) 
-40.8461556434631

>  <r_i_glide_einternal>  (20) 
4.3050856590271

>  <i_i_glide_confnum>  (20) 
4

>  <i_i_glide_posenum>  (20) 
369

>  <r_i_glide_eff_state_penalty>  (20) 
0

$$$$
BDB50216917-30-0000
     RDKit          3D

 45 46  0  0  1  0  0  0  0  0999 V2000
   34.7382   31.7095   90.0121 C   0  0  2  0  0  0  0  0  0  0  0  0
   34.6395   32.3024   91.2664 O   0  0  0  0  0  0  0  0  0  0  0  0
   33.2679   31.7183   89.5778 C   0  0  0  0  0  0  0  0  0  0  0  0
   32.5155   32.3036   90.5631 N   0  0  0  0  0  0  0  0  0  0  0  0
   33.3361   32.6215   91.4763 C   0  0  0  0  0  0  0  0  0  0  0  0
   32.8364   31.2702   88.5166 O   0  0  0  0  0  0  0  0  0  0  0  0
   33.0750   33.2432   92.6812 N   0  0  0  0  0  0  0  0  0  0  0  0
   34.1024   33.7309   93.6120 C   0  0  1  0  0  0  0  0  0  0  0  0
   34.9157   32.5649   94.2529 C   0  0  0  0  0  0  0  0  0  0  0  0
   35.7415   32.8905   95.5176 C   0  0  0  0  0  0  0  0  0  0  0  0
   35.0037   34.8281   92.9692 C   0  0  0  0  0  0  0  0  0  0  0  0
   35.1840   36.1200   93.7941 C   0  0  0  0  0  0  0  0  0  0  0  0
   35.4914   35.9697   95.2990 C   0  0  0  0  0  0  0  0  0  0  0  0
   36.8107   35.2645   95.6806 C   0  0  0  0  0  0  0  0  0  0  0  0
   36.9762   33.7854   95.2743 C   0  0  0  0  0  0  0  0  0  0  0  0
   35.2851   30.2670   90.2216 C   0  0  0  0  0  0  0  0  0  0  0  0
   35.5995   32.6759   89.1557 C   0  0  0  0  0  0  0  0  0  0  0  0
   35.4613   29.4149   88.9521 C   0  0  0  0  0  0  0  0  0  0  0  0
   36.9902   32.9713   89.7523 C   0  0  0  0  0  0  0  0  0  0  0  0
   32.1926   32.9916   93.1082 H   0  0  0  0  0  0  0  0  0  0  0  0
   33.5263   34.2012   94.4090 H   0  0  0  0  0  0  0  0  0  0  0  0
   34.2166   31.7713   94.5171 H   0  0  0  0  0  0  0  0  0  0  0  0
   35.5804   32.1130   93.5171 H   0  0  0  0  0  0  0  0  0  0  0  0
   35.1044   33.2986   96.3049 H   0  0  0  0  0  0  0  0  0  0  0  0
   36.1055   31.9489   95.9277 H   0  0  0  0  0  0  0  0  0  0  0  0
   35.9740   34.4154   92.7033 H   0  0  0  0  0  0  0  0  0  0  0  0
   34.5926   35.1364   92.0076 H   0  0  0  0  0  0  0  0  0  0  0  0
   34.2701   36.7103   93.7026 H   0  0  0  0  0  0  0  0  0  0  0  0
   35.9653   36.7228   93.3276 H   0  0  0  0  0  0  0  0  0  0  0  0
   34.6532   35.4937   95.8078 H   0  0  0  0  0  0  0  0  0  0  0  0
   35.5251   36.9736   95.7278 H   0  0  0  0  0  0  0  0  0  0  0  0
   36.9065   35.3160   96.7666 H   0  0  0  0  0  0  0  0  0  0  0  0
   37.6521   35.8384   95.2892 H   0  0  0  0  0  0  0  0  0  0  0  0
   37.8120   33.3865   95.8507 H   0  0  0  0  0  0  0  0  0  0  0  0
   37.3148   33.7044   94.2427 H   0  0  0  0  0  0  0  0  0  0  0  0
   34.6395   29.7242   90.9166 H   0  0  0  0  0  0  0  0  0  0  0  0
   36.2470   30.3269   90.7336 H   0  0  0  0  0  0  0  0  0  0  0  0
   35.7152   32.2726   88.1529 H   0  0  0  0  0  0  0  0  0  0  0  0
   35.0819   33.6299   89.0286 H   0  0  0  0  0  0  0  0  0  0  0  0
   35.9136   28.4554   89.1971 H   0  0  0  0  0  0  0  0  0  0  0  0
   36.1154   29.8918   88.2261 H   0  0  0  0  0  0  0  0  0  0  0  0
   34.5110   29.2132   88.4608 H   0  0  0  0  0  0  0  0  0  0  0  0
   37.5426   33.6637   89.1180 H   0  0  0  0  0  0  0  0  0  0  0  0
   36.9173   33.4277   90.7406 H   0  0  0  0  0  0  0  0  0  0  0  0
   37.5922   32.0659   89.8426 H   0  0  0  0  0  0  0  0  0  0  0  0
  1  2  1  0
  1  3  1  0
  1 16  1  1
  1 17  1  0
  2  5  1  0
  3  6  2  0
  3  4  1  0
  4  5  2  0
  5  7  1  0
  7  8  1  0
  7 20  1  0
  8  9  1  0
  8 11  1  0
  8 21  1  1
  9 10  1  0
  9 22  1  0
  9 23  1  0
 10 15  1  0
 10 24  1  0
 10 25  1  0
 11 12  1  0
 11 26  1  0
 11 27  1  0
 12 13  1  0
 12 28  1  0
 12 29  1  0
 13 14  1  0
 13 30  1  0
 13 31  1  0
 14 15  1  0
 14 32  1  0
 14 33  1  0
 15 34  1  0
 15 35  1  0
 16 18  1  0
 16 36  1  0
 16 37  1  0
 17 19  1  0
 17 38  1  0
 17 39  1  0
 18 40  1  0
 18 41  1  0
 18 42  1  0
 19 43  1  0
 19 44  1  0
 19 45  1  0
M  END
>  <Name>  (21) 
BDB50216917

>  <Target>  (21) 
11-beta-Hydroxysteroid Dehydrogenase 1 (11-beta-HSD1)

>  <Ki_in_nM>  (21) 
10

>  <Kd_from_ITC>  (21) 
false

>  <Uniprot_ID>  (21) 
P28845

>  <source_organism>  (21) 
Homo sapiens

>  <SourceTag>  (21) 
11betaHSD1

>  <s_i_glide_gridfile>  (21) 
11betahsd1_glide-grid

>  <i_i_glide_lignum>  (21) 
31

>  <i_i_glide_rotatable_bonds>  (21) 
4

>  <r_i_docking_score>  (21) 
-8.38533581508056

>  <r_i_glide_ligand_efficiency>  (21) 
-0.441333463951608

>  <r_i_glide_ligand_efficiency_sa>  (21) 
-1.17765494168879

>  <r_i_glide_ligand_efficiency_ln>  (21) 
-2.1258627296226

>  <r_i_glide_gscore>  (21) 
-8.38533581508056

>  <r_i_glide_lipo>  (21) 
-3.27154495027623

>  <r_i_glide_hbond>  (21) 
-0.294523656832131

>  <r_i_glide_metal>  (21) 
-0

>  <r_i_glide_rewards>  (21) 
-3.00072177432864

>  <r_i_glide_evdw>  (21) 
-37.5324249267578

>  <r_i_glide_ecoul>  (21) 
-2.95996785163879

>  <r_i_glide_erotb>  (21) 
0.502070990440156

>  <r_i_glide_esite>  (21) 
0

>  <r_i_glide_emodel>  (21) 
-58.543142759225

>  <r_i_glide_energy>  (21) 
-40.4923927783966

>  <r_i_glide_einternal>  (21) 
8.58284091949463

>  <i_i_glide_confnum>  (21) 
29

>  <i_i_glide_posenum>  (21) 
295

>  <r_i_glide_eff_state_penalty>  (21) 
0

$$$$
BDB50216921-25-0000
     RDKit          3D

 45 49  0  0  1  0  0  0  0  0999 V2000
   35.1659   34.6810   95.1162 C   0  0  1  0  0  0  0  0  0  0  0  0
   35.6845   33.6544   96.1541 C   0  0  0  0  0  0  0  0  0  0  0  0
   37.1817   33.9347   96.3454 C   0  0  0  0  0  0  0  0  0  0  0  0
   37.5678   35.0137   95.3414 C   0  0  0  0  0  0  0  0  0  0  0  0
   36.2747   35.7434   94.9723 C   0  0  0  0  0  0  0  0  0  0  0  0
   34.9248   34.0384   93.9030 O   0  0  0  0  0  0  0  0  0  0  0  0
   33.7926   35.2637   95.4450 C   0  0  0  0  0  0  0  0  0  0  0  0
   32.9182   34.8737   94.4553 N   0  0  0  0  0  0  0  0  0  0  0  0
   33.6040   34.1979   93.6270 C   0  0  0  0  0  0  0  0  0  0  0  0
   33.5276   35.9535   96.4296 O   0  0  0  0  0  0  0  0  0  0  0  0
   34.8295   32.4687   88.7082 C   0  0  0  0  0  0  0  0  0  0  0  0
   35.8402   32.7933   89.8416 C   0  0  2  0  0  0  0  0  0  0  0  0
   33.6202   31.6481   89.2156 C   0  0  1  0  0  0  0  0  0  0  0  0
   36.3196   31.4568   90.4767 C   0  0  0  0  0  0  0  0  0  0  0  0
   34.1672   30.3365   89.8381 C   0  0  0  0  0  0  0  0  0  0  0  0
   35.1383   30.6059   91.0219 C   0  0  2  0  0  0  0  0  0  0  0  0
   32.9194   32.4670   90.3302 C   0  0  0  0  0  0  0  0  0  0  0  0
   33.8914   32.7832   91.5037 C   0  0  2  0  0  0  0  0  0  0  0  0
   35.0970   33.5928   90.9402 C   0  0  0  0  0  0  0  0  0  0  0  0
   34.3949   31.4403   92.1016 C   0  0  0  0  0  0  0  0  0  0  0  0
   33.1312   33.5620   92.4929 N   0  0  0  0  0  0  0  0  0  0  0  0
   35.5419   32.6298   95.7999 H   0  0  0  0  0  0  0  0  0  0  0  0
   35.1647   33.7275   97.1118 H   0  0  0  0  0  0  0  0  0  0  0  0
   37.7761   33.0411   96.1548 H   0  0  0  0  0  0  0  0  0  0  0  0
   37.3873   34.2625   97.3674 H   0  0  0  0  0  0  0  0  0  0  0  0
   37.9886   34.5437   94.4554 H   0  0  0  0  0  0  0  0  0  0  0  0
   38.3349   35.6763   95.7388 H   0  0  0  0  0  0  0  0  0  0  0  0
   36.1086   36.5929   95.6388 H   0  0  0  0  0  0  0  0  0  0  0  0
   36.3293   36.1422   93.9583 H   0  0  0  0  0  0  0  0  0  0  0  0
   35.3157   31.9181   87.9042 H   0  0  0  0  0  0  0  0  0  0  0  0
   34.4797   33.3929   88.2467 H   0  0  0  0  0  0  0  0  0  0  0  0
   36.6882   33.3632   89.4558 H   0  0  0  0  0  0  0  0  0  0  0  0
   32.9290   31.4350   88.4000 H   0  0  0  0  0  0  0  0  0  0  0  0
   36.8888   30.8719   89.7530 H   0  0  0  0  0  0  0  0  0  0  0  0
   37.0269   31.6638   91.2830 H   0  0  0  0  0  0  0  0  0  0  0  0
   33.3405   29.6997   90.1499 H   0  0  0  0  0  0  0  0  0  0  0  0
   34.6816   29.7574   89.0708 H   0  0  0  0  0  0  0  0  0  0  0  0
   35.5035   29.6673   91.4428 H   0  0  0  0  0  0  0  0  0  0  0  0
   32.0536   31.9112   90.6925 H   0  0  0  0  0  0  0  0  0  0  0  0
   32.5195   33.3911   89.9077 H   0  0  0  0  0  0  0  0  0  0  0  0
   34.7488   34.5474   90.5495 H   0  0  0  0  0  0  0  0  0  0  0  0
   35.8215   33.8454   91.7141 H   0  0  0  0  0  0  0  0  0  0  0  0
   35.0651   31.6205   92.9443 H   0  0  0  0  0  0  0  0  0  0  0  0
   33.5603   30.8662   92.5082 H   0  0  0  0  0  0  0  0  0  0  0  0
   32.1827   33.2331   92.5974 H   0  0  0  0  0  0  0  0  0  0  0  0
  1  5  1  0
  1  2  1  0
  1  6  1  6
  1  7  1  0
  2  3  1  0
  2 22  1  0
  2 23  1  0
  3  4  1  0
  3 24  1  0
  3 25  1  0
  4  5  1  0
  4 26  1  0
  4 27  1  0
  5 28  1  0
  5 29  1  0
  6  9  1  0
  7  8  1  0
  7 10  2  0
  8  9  2  0
  9 21  1  0
 11 12  1  0
 11 13  1  0
 11 30  1  0
 11 31  1  0
 12 14  1  0
 12 19  1  0
 12 32  1  6
 13 15  1  0
 13 17  1  0
 13 33  1  6
 14 16  1  0
 14 34  1  0
 14 35  1  0
 15 16  1  0
 15 36  1  0
 15 37  1  0
 16 20  1  0
 16 38  1  1
 17 18  1  0
 17 39  1  0
 17 40  1  0
 18 20  1  0
 18 19  1  0
 18 21  1  1
 19 41  1  0
 19 42  1  0
 20 43  1  0
 20 44  1  0
 21 45  1  0
M  END
>  <Name>  (22) 
BDB50216921

>  <Target>  (22) 
11-beta-Hydroxysteroid Dehydrogenase 1 (11-beta-HSD1)

>  <Ki_in_nM>  (22) 
4

>  <Kd_from_ITC>  (22) 
false

>  <Uniprot_ID>  (22) 
P28845

>  <source_organism>  (22) 
Homo sapiens

>  <SourceTag>  (22) 
11betaHSD1

>  <s_i_glide_gridfile>  (22) 
11betahsd1_glide-grid

>  <i_i_glide_lignum>  (22) 
26

>  <i_i_glide_rotatable_bonds>  (22) 
2

>  <r_i_docking_score>  (22) 
-9.29260443767993

>  <r_i_glide_ligand_efficiency>  (22) 
-0.442504973222854

>  <r_i_glide_ligand_efficiency_sa>  (22) 
-1.22083766755446

>  <r_i_glide_ligand_efficiency_ln>  (22) 
-2.29757766974104

>  <r_i_glide_gscore>  (22) 
-9.29260443767993

>  <r_i_glide_lipo>  (22) 
-4.09799590719304

>  <r_i_glide_hbond>  (22) 
-0.271898760327343

>  <r_i_glide_metal>  (22) 
-0

>  <r_i_glide_rewards>  (22) 
-2.97979207110415

>  <r_i_glide_evdw>  (22) 
-42.4248886108398

>  <r_i_glide_ecoul>  (22) 
-1.72771298885345

>  <r_i_glide_erotb>  (22) 
0.437483679814617

>  <r_i_glide_esite>  (22) 
0

>  <r_i_glide_emodel>  (22) 
-65.9794312431415

>  <r_i_glide_energy>  (22) 
-44.1526015996933

>  <r_i_glide_einternal>  (22) 
3.51982402801514

>  <i_i_glide_confnum>  (22) 
2

>  <i_i_glide_posenum>  (22) 
180

>  <r_i_glide_eff_state_penalty>  (22) 
0

$$$$
BDB50224219-27-0000
     RDKit          3D

 29 30  0  0  1  0  0  0  0  0999 V2000
   34.5155   29.9475   88.1176 C   0  0  0  0  0  0  0  0  0  0  0  0
   33.4654   30.7544   88.5517 C   0  0  0  0  0  0  0  0  0  0  0  0
   33.4809   31.2984   89.8366 C   0  0  0  0  0  0  0  0  0  0  0  0
   34.5703   31.0511   90.6951 C   0  0  0  0  0  0  0  0  0  0  0  0
   35.6016   30.2148   90.2567 C   0  0  0  0  0  0  0  0  0  0  0  0
   35.5754   29.6640   88.9760 C   0  0  0  0  0  0  0  0  0  0  0  0
   34.6510   31.5409   92.0111 N   0  0  0  0  0  0  0  0  0  0  0  0
   34.4942   32.8456   92.4507 C   0  0  0  0  0  0  0  0  0  0  0  0
   34.7721   33.2023   94.1518 S   0  0  0  0  0  0  0  0  0  0  0  0
   34.3253   34.8874   93.8194 C   0  0  0  0  0  0  0  0  0  0  0  0
   34.0431   35.0155   92.4072 C   0  0  0  0  0  0  0  0  0  0  0  0
   34.1730   33.8269   91.7294 N   0  0  0  0  0  0  0  0  0  0  0  0
   33.7154   36.0638   91.8562 O   0  0  0  0  0  0  0  0  0  0  0  0
   34.2633   35.9656   94.9038 C   0  0  2  0  0  0  0  0  0  0  0  0
   34.7978   35.5302   96.2829 C   0  0  0  0  0  0  0  0  0  0  0  0
   32.8593   36.5875   95.0355 C   0  0  0  0  0  0  0  0  0  0  0  0
   32.4273   32.0527   90.2272 F   0  0  0  0  0  0  0  0  0  0  0  0
   34.5005   29.5265   87.1230 H   0  0  0  0  0  0  0  0  0  0  0  0
   32.6332   30.9553   87.8938 H   0  0  0  0  0  0  0  0  0  0  0  0
   36.4354   29.9945   90.9077 H   0  0  0  0  0  0  0  0  0  0  0  0
   36.3829   29.0262   88.6467 H   0  0  0  0  0  0  0  0  0  0  0  0
   35.0081   30.8789   92.6829 H   0  0  0  0  0  0  0  0  0  0  0  0
   34.9262   36.7609   94.5573 H   0  0  0  0  0  0  0  0  0  0  0  0
   35.8331   35.1938   96.2169 H   0  0  0  0  0  0  0  0  0  0  0  0
   34.2064   34.7149   96.7019 H   0  0  0  0  0  0  0  0  0  0  0  0
   34.7726   36.3543   96.9962 H   0  0  0  0  0  0  0  0  0  0  0  0
   32.5456   37.0712   94.1095 H   0  0  0  0  0  0  0  0  0  0  0  0
   32.1153   35.8278   95.2776 H   0  0  0  0  0  0  0  0  0  0  0  0
   32.8291   37.3458   95.8184 H   0  0  0  0  0  0  0  0  0  0  0  0
  1  6  2  0
  1  2  1  0
  1 18  1  0
  2  3  2  0
  2 19  1  0
  3  4  1  0
  3 17  1  0
  4  5  2  0
  4  7  1  0
  5  6  1  0
  5 20  1  0
  6 21  1  0
  7  8  1  0
  7 22  1  0
  8  9  1  0
  8 12  2  0
  9 10  1  0
 10 11  1  0
 10 14  1  0
 11 12  1  0
 11 13  2  0
 14 15  1  0
 14 16  1  0
 14 23  1  6
 15 24  1  0
 15 25  1  0
 15 26  1  0
 16 27  1  0
 16 28  1  0
 16 29  1  0
M  CHG  1  10  -1
M  END
>  <Name>  (23) 
BDB50224219

>  <Target>  (23) 
11-beta-Hydroxysteroid Dehydrogenase 1 (11-beta-HSD1)

>  <Ki_in_nM>  (23) 
7

>  <IC50_in_nM>  (23) 
 15

>  <Kd_from_ITC>  (23) 
false

>  <Uniprot_ID>  (23) 
P28845

>  <source_organism>  (23) 
Homo sapiens

>  <SourceTag>  (23) 
11betaHSD1

>  <s_i_glide_gridfile>  (23) 
11betahsd1_glide-grid

>  <i_i_glide_lignum>  (23) 
28

>  <i_i_glide_rotatable_bonds>  (23) 
3

>  <r_i_docking_score>  (23) 
-8.42783474284278

>  <r_i_glide_ligand_efficiency>  (23) 
-0.495754984873105

>  <r_i_glide_ligand_efficiency_sa>  (23) 
-1.27472566487741

>  <r_i_glide_ligand_efficiency_ln>  (23) 
-2.19863440575542

>  <r_i_glide_gscore>  (23) 
-8.42783474284278

>  <r_i_glide_lipo>  (23) 
-3.26465481507933

>  <r_i_glide_hbond>  (23) 
-0.24542679092881

>  <r_i_glide_metal>  (23) 
-0

>  <r_i_glide_rewards>  (23) 
-2.54001691987046

>  <r_i_glide_evdw>  (23) 
-30.5545711517334

>  <r_i_glide_ecoul>  (23) 
-9.36697196960449

>  <r_i_glide_erotb>  (23) 
0.555038136063166

>  <r_i_glide_esite>  (23) 
0

>  <r_i_glide_emodel>  (23) 
-62.8617754450697

>  <r_i_glide_energy>  (23) 
-39.9215431213379

>  <r_i_glide_einternal>  (23) 
3.35353493690491

>  <i_i_glide_confnum>  (23) 
3

>  <i_i_glide_posenum>  (23) 
329

>  <r_i_glide_eff_state_penalty>  (23) 
0

$$$$
BDB50239407-14-0000
     RDKit          3D

 44 47  0  0  1  0  0  0  0  0999 V2000
   33.0771   35.9445   95.7560 C   0  0  0  0  0  0  0  0  0  0  0  0
   32.9153   37.3946   95.3275 C   0  0  0  0  0  0  0  0  0  0  0  0
   34.4020   37.3894   95.0104 C   0  0  0  0  0  0  0  0  0  0  0  0
   34.3918   35.8365   94.9346 C   0  0  2  0  0  0  0  0  0  0  0  0
   35.7153   32.1530   93.2370 C   0  0  0  0  0  0  0  0  0  0  0  0
   34.4065   32.7244   93.8188 C   0  0  0  0  0  0  0  0  0  0  0  0
   34.0124   33.9445   93.1311 N   0  0  0  0  0  0  0  0  0  0  0  0
   35.6308   31.4270   91.8640 C   0  0  0  0  0  0  0  0  0  0  0  0
   35.5905   32.3389   90.6193 C   0  0  0  0  0  0  0  0  0  0  0  0
   34.1943   32.4866   89.9893 C   0  0  0  0  0  0  0  0  0  0  0  0
   33.0834   32.8405   90.9904 C   0  0  0  0  0  0  0  0  0  0  0  0
   33.4542   34.0121   91.8777 C   0  0  0  0  0  0  0  0  0  0  0  0
   33.3154   35.2456   91.5164 N   0  0  0  0  0  0  0  0  0  0  0  0
   33.7153   36.0566   92.5514 N   0  0  0  0  0  0  0  0  0  0  0  0
   34.0941   35.2768   93.5301 C   0  0  0  0  0  0  0  0  0  0  0  0
   35.6268   35.1686   95.5149 C   0  0  0  0  0  0  0  0  0  0  0  0
   36.8485   35.2721   94.8385 C   0  0  0  0  0  0  0  0  0  0  0  0
   38.0060   34.7752   95.4249 C   0  0  0  0  0  0  0  0  0  0  0  0
   37.9242   34.1995   96.6875 C   0  0  0  0  0  0  0  0  0  0  0  0
   36.7179   34.0788   97.3535 C   0  0  0  0  0  0  0  0  0  0  0  0
   35.5628   34.5500   96.7658 C   0  0  0  0  0  0  0  0  0  0  0  0
   39.3279   33.6653   97.4887 Cl  0  0  0  0  0  0  0  0  0  0  0  0
   32.2808   35.2643   95.4531 H   0  0  0  0  0  0  0  0  0  0  0  0
   33.1886   35.8518   96.8359 H   0  0  0  0  0  0  0  0  0  0  0  0
   32.2753   37.5313   94.4534 H   0  0  0  0  0  0  0  0  0  0  0  0
   32.6070   38.0637   96.1267 H   0  0  0  0  0  0  0  0  0  0  0  0
   35.0235   37.7702   95.8213 H   0  0  0  0  0  0  0  0  0  0  0  0
   34.7111   37.9204   94.1119 H   0  0  0  0  0  0  0  0  0  0  0  0
   36.4749   32.9352   93.1893 H   0  0  0  0  0  0  0  0  0  0  0  0
   36.1085   31.4585   93.9795 H   0  0  0  0  0  0  0  0  0  0  0  0
   34.5159   32.9218   94.8815 H   0  0  0  0  0  0  0  0  0  0  0  0
   33.5945   32.0007   93.7461 H   0  0  0  0  0  0  0  0  0  0  0  0
   36.5154   30.8050   91.7516 H   0  0  0  0  0  0  0  0  0  0  0  0
   34.8076   30.7114   91.8628 H   0  0  0  0  0  0  0  0  0  0  0  0
   35.9999   33.3225   90.8587 H   0  0  0  0  0  0  0  0  0  0  0  0
   36.2602   31.9371   89.8558 H   0  0  0  0  0  0  0  0  0  0  0  0
   34.2412   33.2527   89.2135 H   0  0  0  0  0  0  0  0  0  0  0  0
   33.9267   31.5618   89.4760 H   0  0  0  0  0  0  0  0  0  0  0  0
   32.8102   31.9672   91.5822 H   0  0  0  0  0  0  0  0  0  0  0  0
   32.1807   33.0760   90.4253 H   0  0  0  0  0  0  0  0  0  0  0  0
   36.9032   35.7620   93.8775 H   0  0  0  0  0  0  0  0  0  0  0  0
   38.9606   34.8673   94.9280 H   0  0  0  0  0  0  0  0  0  0  0  0
   36.6834   33.6635   98.3478 H   0  0  0  0  0  0  0  0  0  0  0  0
   34.6429   34.4478   97.3186 H   0  0  0  0  0  0  0  0  0  0  0  0
  1  4  1  0
  1  2  1  0
  1 23  1  0
  1 24  1  0
  2  3  1  0
  2 25  1  0
  2 26  1  0
  3  4  1  0
  3 27  1  0
  3 28  1  0
  4 15  1  6
  4 16  1  0
  5  6  1  0
  5  8  1  0
  5 29  1  0
  5 30  1  0
  6  7  1  0
  6 31  1  0
  6 32  1  0
  7 12  1  0
  7 15  1  0
  8  9  1  0
  8 33  1  0
  8 34  1  0
  9 10  1  0
  9 35  1  0
  9 36  1  0
 10 11  1  0
 10 37  1  0
 10 38  1  0
 11 12  1  0
 11 39  1  0
 11 40  1  0
 12 13  2  0
 13 14  1  0
 14 15  2  0
 16 17  2  0
 16 21  1  0
 17 18  1  0
 17 41  1  0
 18 19  2  0
 18 42  1  0
 19 20  1  0
 19 22  1  0
 20 21  2  0
 20 43  1  0
 21 44  1  0
M  END
>  <Name>  (24) 
BDB50239407

>  <Target>  (24) 
11-beta-Hydroxysteroid Dehydrogenase 1 (11-beta-HSD1)

>  <IC50_in_nM>  (24) 
 1.3

>  <Kd_from_ITC>  (24) 
false

>  <Uniprot_ID>  (24) 
P28845

>  <source_organism>  (24) 
Homo sapiens

>  <SourceTag>  (24) 
11betaHSD1

>  <s_i_glide_gridfile>  (24) 
11betahsd1_glide-grid

>  <i_i_glide_lignum>  (24) 
15

>  <i_i_glide_rotatable_bonds>  (24) 
2

>  <r_i_docking_score>  (24) 
-8.96576522568461

>  <r_i_glide_ligand_efficiency>  (24) 
-0.407534782985664

>  <r_i_glide_ligand_efficiency_sa>  (24) 
-1.14192848935936

>  <r_i_glide_ligand_efficiency_ln>  (24) 
-2.19156005538995

>  <r_i_glide_gscore>  (24) 
-8.96576522568461

>  <r_i_glide_lipo>  (24) 
-4.36647767395817

>  <r_i_glide_hbond>  (24) 
0

>  <r_i_glide_metal>  (24) 
-0

>  <r_i_glide_rewards>  (24) 
-2.87266917741035

>  <r_i_glide_evdw>  (24) 
-34.1314811706543

>  <r_i_glide_ecoul>  (24) 
-2.55102014541626

>  <r_i_glide_erotb>  (24) 
0.37308045120453

>  <r_i_glide_esite>  (24) 
-0.0104717451754672

>  <r_i_glide_emodel>  (24) 
-53.3375193136885

>  <r_i_glide_energy>  (24) 
-36.6825013160706

>  <r_i_glide_einternal>  (24) 
1.98043406009674

>  <i_i_glide_confnum>  (24) 
20

>  <i_i_glide_posenum>  (24) 
161

>  <r_i_glide_eff_state_penalty>  (24) 
0

$$$$
BDB50248426-1-0000
     RDKit          3D

 70 74  0  0  1  0  0  0  0  0999 V2000
   31.8585   31.1861   89.4299 C   0  0  0  0  0  0  0  0  0  0  0  0
   33.1699   31.6953   90.0190 C   0  0  1  0  0  0  0  0  0  0  0  0
   32.6916   32.1104   88.6210 C   0  0  0  0  0  0  0  0  0  0  0  0
   39.9048   34.8069   99.4291 C   0  0  0  0  0  0  0  0  0  0  0  0
   39.6456   36.0505  100.0224 C   0  0  0  0  0  0  0  0  0  0  0  0
   39.2305   34.9934  102.1571 N   0  0  0  0  0  0  0  0  0  0  0  0
   39.5220   33.7971  101.5849 C   0  0  0  0  0  0  0  0  0  0  0  0
   39.3096   36.1017  101.3782 C   0  0  0  0  0  0  0  0  0  0  0  0
   39.8663   33.6643  100.2377 C   0  0  0  0  0  0  0  0  0  0  0  0
   33.2106   32.6952   91.1881 C   0  0  0  0  0  0  0  0  0  0  0  0
   33.2647   34.0613   90.9237 C   0  0  0  0  0  0  0  0  0  0  0  0
   33.5783   34.9651   91.9256 C   0  0  0  0  0  0  0  0  0  0  0  0
   33.8534   34.5201   93.2076 C   0  0  0  0  0  0  0  0  0  0  0  0
   33.7351   33.1637   93.5128 C   0  0  0  0  0  0  0  0  0  0  0  0
   33.3990   32.2520   92.5049 C   0  0  0  0  0  0  0  0  0  0  0  0
   34.3837   35.7312   94.4143 S   0  0  2  0  0  0  0  0  0  0  0  0
   35.7994   34.9999   95.2274 N   0  0  0  0  0  0  0  0  0  0  0  0
   33.2548   35.9171   95.3297 O   0  0  0  0  0  0  0  0  0  0  0  0
   34.8736   36.8794   93.6434 O   0  0  0  0  0  0  0  0  0  0  0  0
   35.7980   34.7075   96.6973 C   0  0  2  0  0  0  0  0  0  0  0  0
   37.0210   33.8290   97.0498 C   0  0  0  0  0  0  0  0  0  0  0  0
   38.2662   34.4732   96.6374 N   0  0  0  0  0  0  0  0  0  0  0  0
   38.2740   34.6752   95.1824 C   0  0  0  0  0  0  0  0  0  0  0  0
   37.0976   35.5983   94.8110 C   0  0  0  0  0  0  0  0  0  0  0  0
   34.5507   33.9142   97.1042 C   0  0  0  0  0  0  0  0  0  0  0  0
   39.4619   33.7650   97.0816 C   0  0  0  0  0  0  0  0  0  0  0  0
   40.3158   34.6934   97.9614 C   0  0  0  0  0  0  0  0  0  0  0  0
   34.3730   30.7236   89.9454 C   0  0  0  0  0  0  0  0  0  0  0  0
   35.6359   31.4497   90.1147 N   0  0  0  0  0  0  0  0  0  0  0  0
   35.8236   32.5740   89.1866 C   0  0  0  0  0  0  0  0  0  0  0  0
   37.1302   33.3257   89.4996 C   0  0  0  0  0  0  0  0  0  0  0  0
   38.2490   32.4649   89.4707 O   0  0  0  0  0  0  0  0  0  0  0  0
   38.0935   31.3510   90.3437 C   0  0  0  0  0  0  0  0  0  0  0  0
   36.7889   30.5548   90.1297 C   0  0  0  0  0  0  0  0  0  0  0  0
   31.7727   30.1390   89.1317 H   0  0  0  0  0  0  0  0  0  0  0  0
   30.9156   31.6118   89.7545 H   0  0  0  0  0  0  0  0  0  0  0  0
   32.3121   33.1143   88.4349 H   0  0  0  0  0  0  0  0  0  0  0  0
   33.2298   31.7120   87.7593 H   0  0  0  0  0  0  0  0  0  0  0  0
   39.7100   36.9638   99.4460 H   0  0  0  0  0  0  0  0  0  0  0  0
   39.4858   32.9335  102.2327 H   0  0  0  0  0  0  0  0  0  0  0  0
   39.0974   37.0441  101.8616 H   0  0  0  0  0  0  0  0  0  0  0  0
   40.1152   32.6966   99.8321 H   0  0  0  0  0  0  0  0  0  0  0  0
   33.1242   34.4630   89.9325 H   0  0  0  0  0  0  0  0  0  0  0  0
   33.6332   36.0193   91.7036 H   0  0  0  0  0  0  0  0  0  0  0  0
   33.9536   32.8126   94.5112 H   0  0  0  0  0  0  0  0  0  0  0  0
   33.3813   31.1944   92.7293 H   0  0  0  0  0  0  0  0  0  0  0  0
   35.8415   35.6540   97.2367 H   0  0  0  0  0  0  0  0  0  0  0  0
   36.9243   32.8634   96.5511 H   0  0  0  0  0  0  0  0  0  0  0  0
   37.0515   33.6581   98.1284 H   0  0  0  0  0  0  0  0  0  0  0  0
   39.2246   35.0982   94.8521 H   0  0  0  0  0  0  0  0  0  0  0  0
   38.1432   33.6952   94.7208 H   0  0  0  0  0  0  0  0  0  0  0  0
   37.2401   36.5500   95.3220 H   0  0  0  0  0  0  0  0  0  0  0  0
   37.0999   35.7277   93.7279 H   0  0  0  0  0  0  0  0  0  0  0  0
   34.6109   33.6664   98.1527 H   0  0  0  0  0  0  0  0  0  0  0  0
   33.6072   34.4282   96.9974 H   0  0  0  0  0  0  0  0  0  0  0  0
   34.5161   32.9649   96.5858 H   0  0  0  0  0  0  0  0  0  0  0  0
   40.0520   33.4262   96.2266 H   0  0  0  0  0  0  0  0  0  0  0  0
   39.2247   32.8645   97.6367 H   0  0  0  0  0  0  0  0  0  0  0  0
   40.4080   35.6599   97.4726 H   0  0  0  0  0  0  0  0  0  0  0  0
   41.3151   34.2924   97.9883 H   0  0  0  0  0  0  0  0  0  0  0  0
   34.2865   29.9899   90.7488 H   0  0  0  0  0  0  0  0  0  0  0  0
   34.3784   30.1602   89.0102 H   0  0  0  0  0  0  0  0  0  0  0  0
   35.7542   32.2287   88.1558 H   0  0  0  0  0  0  0  0  0  0  0  0
   35.0229   33.2993   89.2740 H   0  0  0  0  0  0  0  0  0  0  0  0
   37.0709   33.8588   90.4518 H   0  0  0  0  0  0  0  0  0  0  0  0
   37.2983   34.0640   88.7291 H   0  0  0  0  0  0  0  0  0  0  0  0
   38.1729   31.6669   91.3803 H   0  0  0  0  0  0  0  0  0  0  0  0
   38.9156   30.6796   90.1534 H   0  0  0  0  0  0  0  0  0  0  0  0
   36.6629   29.8259   90.9331 H   0  0  0  0  0  0  0  0  0  0  0  0
   36.8320   29.9681   89.2144 H   0  0  0  0  0  0  0  0  0  0  0  0
  1  2  1  0
  1  3  1  0
  1 35  1  0
  1 36  1  0
  2  3  1  0
  2 28  1  6
  2 10  1  0
  3 37  1  0
  3 38  1  0
  4 27  1  0
  4  5  2  0
  4  9  1  0
  5  8  1  0
  5 39  1  0
  6  8  2  0
  6  7  1  0
  7  9  2  0
  7 40  1  0
  8 41  1  0
  9 42  1  0
 10 11  2  0
 10 15  1  0
 11 12  1  0
 11 43  1  0
 12 13  2  0
 12 44  1  0
 13 14  1  0
 13 16  1  0
 14 15  2  0
 14 45  1  0
 15 46  1  0
 16 17  1  1
 16 18  2  0
 16 19  2  0
 17 20  1  0
 17 24  1  0
 20 21  1  0
 20 25  1  0
 20 47  1  1
 21 22  1  0
 21 48  1  0
 21 49  1  0
 22 23  1  0
 22 26  1  0
 23 24  1  0
 23 50  1  0
 23 51  1  0
 24 52  1  0
 24 53  1  0
 25 54  1  0
 25 55  1  0
 25 56  1  0
 26 27  1  0
 26 57  1  0
 26 58  1  0
 27 59  1  0
 27 60  1  0
 28 29  1  0
 28 61  1  0
 28 62  1  0
 29 30  1  0
 29 34  1  0
 30 31  1  0
 30 63  1  0
 30 64  1  0
 31 32  1  0
 31 65  1  0
 31 66  1  0
 32 33  1  0
 33 34  1  0
 33 67  1  0
 33 68  1  0
 34 69  1  0
 34 70  1  0
M  END
>  <Name>  (25) 
BDB50248426

>  <Target>  (25) 
11-beta-Hydroxysteroid Dehydrogenase 1 (11-beta-HSD1)

>  <IC50_in_nM>  (25) 
 8

>  <Kd_from_ITC>  (25) 
false

>  <Uniprot_ID>  (25) 
P28845

>  <source_organism>  (25) 
Homo sapiens

>  <SourceTag>  (25) 
11betaHSD1

>  <s_i_glide_gridfile>  (25) 
11betahsd1_glide-grid

>  <i_i_glide_lignum>  (25) 
2

>  <i_i_glide_rotatable_bonds>  (25) 
8

>  <r_i_docking_score>  (25) 
-7.58221598086793

>  <r_i_glide_ligand_efficiency>  (25) 
-0.223006352378469

>  <r_i_glide_ligand_efficiency_sa>  (25) 
-0.722454010075921

>  <r_i_glide_ligand_efficiency_ln>  (25) 
-1.67512418412824

>  <r_i_glide_gscore>  (25) 
-7.58221598086793

>  <r_i_glide_lipo>  (25) 
-5.64668153741159

>  <r_i_glide_hbond>  (25) 
0

>  <r_i_glide_metal>  (25) 
-0

>  <r_i_glide_rewards>  (25) 
-0.358936834055469

>  <r_i_glide_evdw>  (25) 
-42.9584159851074

>  <r_i_glide_ecoul>  (25) 
-0.802574336528778

>  <r_i_glide_erotb>  (25) 
0.691709340333809

>  <r_i_glide_esite>  (25) 
0

>  <r_i_glide_emodel>  (25) 
-40.606391663059

>  <r_i_glide_energy>  (25) 
-43.7609903216362

>  <r_i_glide_einternal>  (25) 
8.43560695648193

>  <i_i_glide_confnum>  (25) 
292

>  <i_i_glide_posenum>  (25) 
55

>  <r_i_glide_eff_state_penalty>  (25) 
0

$$$$
BDB50248569-21-0000
     RDKit          3D

 56 58  0  0  1  0  0  0  0  0999 V2000
   40.4302   34.0859  100.9615 C   0  0  2  0  0  0  0  0  0  0  0  0
   39.9718   32.6662  101.3500 C   0  0  0  0  0  0  0  0  0  0  0  0
   38.8614   32.4644  101.8360 O   0  0  0  0  0  0  0  0  0  0  0  0
   35.1457   32.6998   92.0414 C   0  0  0  0  0  0  0  0  0  0  0  0
   35.0327   32.1117   93.3138 C   0  0  0  0  0  0  0  0  0  0  0  0
   35.2448   32.8607   94.4713 C   0  0  0  0  0  0  0  0  0  0  0  0
   35.5533   34.2148   94.3692 C   0  0  0  0  0  0  0  0  0  0  0  0
   35.6609   34.8139   93.1112 C   0  0  0  0  0  0  0  0  0  0  0  0
   35.4629   34.0601   91.9606 C   0  0  0  0  0  0  0  0  0  0  0  0
   34.8952   31.9070   90.7349 C   0  0  2  0  0  0  0  0  0  0  0  0
   35.8933   32.1891   89.7585 O   0  0  0  0  0  0  0  0  0  0  0  0
   33.5011   32.2713   90.1264 C   0  0  2  0  0  0  0  0  0  0  0  0
   35.0226   30.3763   90.9298 C   0  0  0  0  0  0  0  0  0  0  0  0
   35.7614   35.2212   95.8437 S   0  0  1  0  0  0  0  0  0  0  0  0
   37.1645   34.5934   96.7873 N   0  0  0  0  0  0  0  0  0  0  0  0
   36.0934   36.5635   95.3530 O   0  0  0  0  0  0  0  0  0  0  0  0
   34.5484   35.0226   96.6449 O   0  0  0  0  0  0  0  0  0  0  0  0
   38.5016   34.2416   96.2279 C   0  0  2  0  0  0  0  0  0  0  0  0
   39.6596   34.5663   97.2074 C   0  0  0  0  0  0  0  0  0  0  0  0
   39.4291   34.0614   98.5613 N   0  0  0  0  0  0  0  0  0  0  0  0
   38.1637   34.5784   99.0654 C   0  0  0  0  0  0  0  0  0  0  0  0
   36.9789   34.1229   98.1706 C   0  0  0  0  0  0  0  0  0  0  0  0
   38.7371   34.9960   94.9375 C   0  0  0  0  0  0  0  0  0  0  0  0
   40.5573   34.4104   99.4424 C   0  0  0  0  0  0  0  0  0  0  0  0
   33.4316   33.5533   89.7613 F   0  0  0  0  0  0  0  0  0  0  0  0
   32.5143   32.0646   90.9975 F   0  0  0  0  0  0  0  0  0  0  0  0
   33.2156   31.5554   89.0355 F   0  0  0  0  0  0  0  0  0  0  0  0
   41.4215   34.7248  101.9199 C   0  0  0  0  0  0  0  0  0  0  0  0
   39.9891   35.1976  101.9050 C   0  0  0  0  0  0  0  0  0  0  0  0
   40.8183   31.6675  101.1255 N   0  0  0  0  0  0  0  0  0  0  0  0
   34.7782   31.0696   93.4285 H   0  0  0  0  0  0  0  0  0  0  0  0
   35.1510   32.3925   95.4412 H   0  0  0  0  0  0  0  0  0  0  0  0
   35.8979   35.8638   93.0152 H   0  0  0  0  0  0  0  0  0  0  0  0
   35.5513   34.5425   90.9995 H   0  0  0  0  0  0  0  0  0  0  0  0
   35.7787   33.0890   89.4442 H   0  0  0  0  0  0  0  0  0  0  0  0
   34.2394   30.0013   91.5848 H   0  0  0  0  0  0  0  0  0  0  0  0
   34.9269   29.8349   89.9871 H   0  0  0  0  0  0  0  0  0  0  0  0
   35.9867   30.0992   91.3594 H   0  0  0  0  0  0  0  0  0  0  0  0
   38.4974   33.1691   96.0268 H   0  0  0  0  0  0  0  0  0  0  0  0
   39.8957   35.6299   97.2239 H   0  0  0  0  0  0  0  0  0  0  0  0
   40.5363   34.0654   96.8175 H   0  0  0  0  0  0  0  0  0  0  0  0
   38.2399   35.6614   99.0966 H   0  0  0  0  0  0  0  0  0  0  0  0
   38.1168   34.2056  100.0776 H   0  0  0  0  0  0  0  0  0  0  0  0
   36.0166   34.4633   98.5354 H   0  0  0  0  0  0  0  0  0  0  0  0
   36.9154   33.0563   98.1615 H   0  0  0  0  0  0  0  0  0  0  0  0
   39.7605   34.8634   94.5968 H   0  0  0  0  0  0  0  0  0  0  0  0
   38.1022   34.5857   94.1657 H   0  0  0  0  0  0  0  0  0  0  0  0
   38.5387   36.0647   94.9603 H   0  0  0  0  0  0  0  0  0  0  0  0
   41.4411   33.9024   99.0668 H   0  0  0  0  0  0  0  0  0  0  0  0
   40.7489   35.4768   99.3504 H   0  0  0  0  0  0  0  0  0  0  0  0
   41.7808   34.1581  102.7805 H   0  0  0  0  0  0  0  0  0  0  0  0
   42.1974   35.3756  101.5154 H   0  0  0  0  0  0  0  0  0  0  0  0
   39.7600   36.1779  101.4858 H   0  0  0  0  0  0  0  0  0  0  0  0
   39.3452   34.9620  102.7550 H   0  0  0  0  0  0  0  0  0  0  0  0
   40.5240   30.7191  101.3312 H   0  0  0  0  0  0  0  0  0  0  0  0
   41.7398   31.8429  100.7594 H   0  0  0  0  0  0  0  0  0  0  0  0
  1 28  1  0
  1 29  1  0
  1 24  1  6
  1  2  1  0
  2  3  2  0
  2 30  1  0
  4  5  2  0
  4  9  1  0
  4 10  1  0
  5  6  1  0
  5 31  1  0
  6  7  2  0
  6 32  1  0
  7  8  1  0
  7 14  1  0
  8  9  2  0
  8 33  1  0
  9 34  1  0
 10 11  1  6
 10 12  1  0
 10 13  1  0
 11 35  1  0
 12 25  1  6
 12 26  1  0
 12 27  1  0
 13 36  1  0
 13 37  1  0
 13 38  1  0
 14 15  1  1
 14 16  2  0
 14 17  2  0
 15 18  1  0
 15 22  1  0
 18 19  1  0
 18 23  1  0
 18 39  1  6
 19 20  1  0
 19 40  1  0
 19 41  1  0
 20 21  1  0
 20 24  1  0
 21 22  1  0
 21 42  1  0
 21 43  1  0
 22 44  1  0
 22 45  1  0
 23 46  1  0
 23 47  1  0
 23 48  1  0
 24 49  1  0
 24 50  1  0
 28 29  1  0
 28 51  1  0
 28 52  1  0
 29 53  1  0
 29 54  1  0
 30 55  1  0
 30 56  1  0
M  END
>  <Name>  (26) 
BDB50248569

>  <Target>  (26) 
11-beta-Hydroxysteroid Dehydrogenase 1 (11-beta-HSD1)

>  <Ki_in_nM>  (26) 
2.7

>  <IC50_in_nM>  (26) 
 14

>  <Kd_from_ITC>  (26) 
false

>  <Uniprot_ID>  (26) 
P28845

>  <source_organism>  (26) 
Homo sapiens

>  <SourceTag>  (26) 
11betaHSD1

>  <s_i_glide_gridfile>  (26) 
11betahsd1_glide-grid

>  <i_i_glide_lignum>  (26) 
22

>  <i_i_glide_rotatable_bonds>  (26) 
8

>  <r_i_docking_score>  (26) 
-6.88164748527915

>  <r_i_glide_ligand_efficiency>  (26) 
-0.229388249509305

>  <r_i_glide_ligand_efficiency_sa>  (26) 
-0.712762624551085

>  <r_i_glide_ligand_efficiency_ln>  (26) 
-1.56358529021033

>  <r_i_glide_gscore>  (26) 
-6.88164748527915

>  <r_i_glide_lipo>  (26) 
-3.42396562498496

>  <r_i_glide_hbond>  (26) 
-0.319064192512908

>  <r_i_glide_metal>  (26) 
-0

>  <r_i_glide_rewards>  (26) 
-1.78888120775662

>  <r_i_glide_evdw>  (26) 
-28.4419231414795

>  <r_i_glide_ecoul>  (26) 
-2.62323379516602

>  <r_i_glide_erotb>  (26) 
0.495973684656567

>  <r_i_glide_esite>  (26) 
-0.0301289183323596

>  <r_i_glide_emodel>  (26) 
-34.5756540358918

>  <r_i_glide_energy>  (26) 
-31.0651569366455

>  <r_i_glide_einternal>  (26) 
3.65027689933777

>  <i_i_glide_confnum>  (26) 
80

>  <i_i_glide_posenum>  (26) 
74

>  <r_i_glide_eff_state_penalty>  (26) 
0

$$$$
BDB50260967-13-0000
     RDKit          3D

 51 55  0  0  1  0  0  0  0  0999 V2000
   34.2408   36.8823   96.2788 C   0  0  0  0  0  0  0  0  0  0  0  0
   33.5862   36.2650   97.5048 C   0  0  0  0  0  0  0  0  0  0  0  0
   33.5574   34.9662   96.7007 C   0  0  0  0  0  0  0  0  0  0  0  0
   34.7612   35.4696   95.8660 C   0  0  2  0  0  0  0  0  0  0  0  0
   38.8066   34.4146   97.0591 C   0  0  0  0  0  0  0  0  0  0  0  0
   38.5857   34.8641   95.7596 C   0  0  0  0  0  0  0  0  0  0  0  0
   37.2911   35.2045   95.3626 C   0  0  0  0  0  0  0  0  0  0  0  0
   36.2035   35.0192   96.2357 C   0  0  0  0  0  0  0  0  0  0  0  0
   36.4452   34.3925   97.4615 C   0  0  0  0  0  0  0  0  0  0  0  0
   37.7348   34.0763   97.8736 C   0  0  0  0  0  0  0  0  0  0  0  0
   40.3897   34.4632   97.7466 Cl  0  0  0  0  0  0  0  0  0  0  0  0
   34.5476   35.1713   94.3908 C   0  0  0  0  0  0  0  0  0  0  0  0
   34.6484   33.9111   93.8498 N   0  0  0  0  0  0  0  0  0  0  0  0
   34.4367   34.1343   92.5164 C   0  0  0  0  0  0  0  0  0  0  0  0
   34.1912   35.3918   92.2555 N   0  0  0  0  0  0  0  0  0  0  0  0
   34.2649   36.0611   93.4652 N   0  0  0  0  0  0  0  0  0  0  0  0
   34.9554   32.6364   94.4969 C   0  0  0  0  0  0  0  0  0  0  0  0
   34.5058   33.0749   91.5130 C   0  0  0  0  0  0  0  0  0  0  0  0
   33.4688   32.1429   91.4925 C   0  0  0  0  0  0  0  0  0  0  0  0
   33.4672   31.1415   90.5344 C   0  0  0  0  0  0  0  0  0  0  0  0
   34.4939   31.0834   89.5933 C   0  0  0  0  0  0  0  0  0  0  0  0
   35.5685   31.9672   89.6694 C   0  0  0  0  0  0  0  0  0  0  0  0
   35.5762   32.9724   90.6183 C   0  0  0  0  0  0  0  0  0  0  0  0
   34.4008   30.2815   88.4582 N   0  0  0  0  0  0  0  0  0  0  0  0
   35.3461   29.4319   87.9606 C   0  0  0  0  0  0  0  0  0  0  0  0
   34.9154   29.0765   86.6992 C   0  0  0  0  0  0  0  0  0  0  0  0
   33.7747   29.6639   86.4052 N   0  0  0  0  0  0  0  0  0  0  0  0
   33.4045   30.2756   87.5121 C   0  0  0  0  0  0  0  0  0  0  0  0
   36.9123   34.0650   90.6237 Cl  0  0  0  0  0  0  0  0  0  0  0  0
   32.0102   30.8336   87.7530 C   0  0  2  0  0  0  0  0  0  0  0  0
   31.3299   30.0637   88.5999 F   0  0  0  0  0  0  0  0  0  0  0  0
   31.3155   30.8473   86.6341 F   0  0  0  0  0  0  0  0  0  0  0  0
   32.0116   32.0757   88.2381 F   0  0  0  0  0  0  0  0  0  0  0  0
   34.9750   37.6417   96.5035 H   0  0  0  0  0  0  0  0  0  0  0  0
   33.4978   37.3205   95.6078 H   0  0  0  0  0  0  0  0  0  0  0  0
   34.2416   36.2493   98.3745 H   0  0  0  0  0  0  0  0  0  0  0  0
   32.6154   36.6752   97.7873 H   0  0  0  0  0  0  0  0  0  0  0  0
   32.6328   34.8656   96.1260 H   0  0  0  0  0  0  0  0  0  0  0  0
   33.7147   34.0564   97.2781 H   0  0  0  0  0  0  0  0  0  0  0  0
   39.4228   35.0907   95.1156 H   0  0  0  0  0  0  0  0  0  0  0  0
   37.1474   35.6573   94.3925 H   0  0  0  0  0  0  0  0  0  0  0  0
   35.6421   34.1996   98.1522 H   0  0  0  0  0  0  0  0  0  0  0  0
   37.9022   33.6914   98.8689 H   0  0  0  0  0  0  0  0  0  0  0  0
   34.9158   32.7267   95.5809 H   0  0  0  0  0  0  0  0  0  0  0  0
   34.2396   31.8774   94.1834 H   0  0  0  0  0  0  0  0  0  0  0  0
   35.9637   32.3303   94.2163 H   0  0  0  0  0  0  0  0  0  0  0  0
   32.6492   32.2129   92.1947 H   0  0  0  0  0  0  0  0  0  0  0  0
   32.6333   30.4639   90.4957 H   0  0  0  0  0  0  0  0  0  0  0  0
   36.3697   31.9416   88.9523 H   0  0  0  0  0  0  0  0  0  0  0  0
   36.2414   29.1968   88.5193 H   0  0  0  0  0  0  0  0  0  0  0  0
   35.4087   28.4048   86.0139 H   0  0  0  0  0  0  0  0  0  0  0  0
  1  4  1  0
  1  2  1  0
  1 34  1  0
  1 35  1  0
  2  3  1  0
  2 36  1  0
  2 37  1  0
  3  4  1  0
  3 38  1  0
  3 39  1  0
  4  8  1  1
  4 12  1  0
  5 10  2  0
  5 11  1  0
  5  6  1  0
  6  7  2  0
  6 40  1  0
  7  8  1  0
  7 41  1  0
  8  9  2  0
  9 10  1  0
  9 42  1  0
 10 43  1  0
 12 16  2  0
 12 13  1  0
 13 17  1  0
 13 14  1  0
 14 18  1  0
 14 15  2  0
 15 16  1  0
 17 44  1  0
 17 45  1  0
 17 46  1  0
 18 19  2  0
 18 23  1  0
 19 20  1  0
 19 47  1  0
 20 21  2  0
 20 48  1  0
 21 22  1  0
 21 24  1  0
 22 23  2  0
 22 49  1  0
 23 29  1  0
 24 25  1  0
 24 28  1  0
 25 26  2  0
 25 50  1  0
 26 27  1  0
 26 51  1  0
 27 28  2  0
 28 30  1  0
 30 31  1  1
 30 32  1  0
 30 33  1  0
M  END
>  <Name>  (27) 
BDB50260967

>  <Target>  (27) 
11-beta-Hydroxysteroid Dehydrogenase 1 (11-beta-HSD1)

>  <IC50_in_nM>  (27) 
 0.98

>  <Kd_from_ITC>  (27) 
false

>  <Uniprot_ID>  (27) 
P28845

>  <source_organism>  (27) 
Homo sapiens

>  <SourceTag>  (27) 
11betaHSD1

>  <s_i_glide_gridfile>  (27) 
11betahsd1_glide-grid

>  <i_i_glide_lignum>  (27) 
14

>  <i_i_glide_rotatable_bonds>  (27) 
5

>  <r_i_docking_score>  (27) 
-9.80592186103589

>  <r_i_glide_ligand_efficiency>  (27) 
-0.297149147304118

>  <r_i_glide_ligand_efficiency_sa>  (27) 
-0.953116089996085

>  <r_i_glide_ligand_efficiency_ln>  (27) 
-2.18078624954826

>  <r_i_glide_gscore>  (27) 
-9.80592186103589

>  <r_i_glide_lipo>  (27) 
-5.18023014206525

>  <r_i_glide_hbond>  (27) 
0

>  <r_i_glide_metal>  (27) 
-0

>  <r_i_glide_rewards>  (27) 
-2.75234230227273

>  <r_i_glide_evdw>  (27) 
-37.6177825927734

>  <r_i_glide_ecoul>  (27) 
-2.19013690948486

>  <r_i_glide_erotb>  (27) 
0.336060249363492

>  <r_i_glide_esite>  (27) 
0

>  <r_i_glide_emodel>  (27) 
-44.5913508627908

>  <r_i_glide_energy>  (27) 
-39.8079195022583

>  <r_i_glide_einternal>  (27) 
1.58410143852234

>  <i_i_glide_confnum>  (27) 
125

>  <i_i_glide_posenum>  (27) 
202

>  <r_i_glide_eff_state_penalty>  (27) 
0

$$$$
BDB50263346-16-0000
     RDKit          3D

 48 51  0  0  1  0  0  0  0  0999 V2000
   32.6634   32.2106   89.9901 C   0  0  0  0  0  0  0  0  0  0  0  0
   33.6703   31.8004   89.1099 C   0  0  0  0  0  0  0  0  0  0  0  0
   34.9514   32.3408   89.2355 C   0  0  0  0  0  0  0  0  0  0  0  0
   35.2266   33.2795   90.2302 C   0  0  0  0  0  0  0  0  0  0  0  0
   34.1926   33.7003   91.0665 C   0  0  0  0  0  0  0  0  0  0  0  0
   32.9154   33.1938   90.9185 C   0  0  0  0  0  0  0  0  0  0  0  0
   33.4539   30.8913   88.0967 O   0  0  0  0  0  0  0  0  0  0  0  0
   32.1088   30.5621   87.7523 C   0  0  2  0  0  0  0  0  0  0  0  0
   31.3154   31.6325   87.7276 F   0  0  0  0  0  0  0  0  0  0  0  0
   31.6103   29.6647   88.6011 F   0  0  0  0  0  0  0  0  0  0  0  0
   32.1154   30.0638   86.5206 F   0  0  0  0  0  0  0  0  0  0  0  0
   34.3369   34.6133   92.2116 C   0  0  0  0  0  0  0  0  0  0  0  0
   34.5448   34.2031   93.5101 N   0  0  0  0  0  0  0  0  0  0  0  0
   34.5249   35.3908   94.2150 C   0  0  0  0  0  0  0  0  0  0  0  0
   34.2816   36.4080   93.4290 N   0  0  0  0  0  0  0  0  0  0  0  0
   34.1154   35.9001   92.1523 N   0  0  0  0  0  0  0  0  0  0  0  0
   34.7822   32.8474   94.0359 C   0  0  1  0  0  0  0  0  0  0  0  0
   33.7951   31.7848   93.4925 C   0  0  0  0  0  0  0  0  0  0  0  0
   36.2352   32.4389   93.7749 C   0  0  0  0  0  0  0  0  0  0  0  0
   36.1814   35.0664   96.1467 C   0  0  0  0  0  0  0  0  0  0  0  0
   36.3877   34.4377   97.3743 C   0  0  0  0  0  0  0  0  0  0  0  0
   37.6689   34.0863   97.7859 C   0  0  0  0  0  0  0  0  0  0  0  0
   38.7517   34.3177   96.9488 C   0  0  0  0  0  0  0  0  0  0  0  0
   38.5584   34.8660   95.6885 C   0  0  0  0  0  0  0  0  0  0  0  0
   37.2855   35.2887   95.3106 C   0  0  0  0  0  0  0  0  0  0  0  0
   40.0009   34.0638   97.3879 F   0  0  0  0  0  0  0  0  0  0  0  0
   34.0727   36.6521   96.4288 C   0  0  0  0  0  0  0  0  0  0  0  0
   34.7736   35.5016   95.7088 C   0  0  1  0  0  0  0  0  0  0  0  0
   33.5256   35.2638   96.5523 C   0  0  0  0  0  0  0  0  0  0  0  0
   31.6707   31.7923   89.9765 H   0  0  0  0  0  0  0  0  0  0  0  0
   35.7297   32.0225   88.5606 H   0  0  0  0  0  0  0  0  0  0  0  0
   36.2245   33.6767   90.3487 H   0  0  0  0  0  0  0  0  0  0  0  0
   32.1235   33.5080   91.5816 H   0  0  0  0  0  0  0  0  0  0  0  0
   34.6350   32.8990   95.1143 H   0  0  0  0  0  0  0  0  0  0  0  0
   33.7154   30.9247   94.1523 H   0  0  0  0  0  0  0  0  0  0  0  0
   32.7890   32.1770   93.3523 H   0  0  0  0  0  0  0  0  0  0  0  0
   34.1189   31.3852   92.5317 H   0  0  0  0  0  0  0  0  0  0  0  0
   36.5154   31.6638   94.4840 H   0  0  0  0  0  0  0  0  0  0  0  0
   36.3727   32.0638   92.7605 H   0  0  0  0  0  0  0  0  0  0  0  0
   36.9462   33.2480   93.8940 H   0  0  0  0  0  0  0  0  0  0  0  0
   35.5719   34.2421   98.0502 H   0  0  0  0  0  0  0  0  0  0  0  0
   37.8266   33.6638   98.7660 H   0  0  0  0  0  0  0  0  0  0  0  0
   39.4065   35.0367   95.0416 H   0  0  0  0  0  0  0  0  0  0  0  0
   37.1599   35.7740   94.3537 H   0  0  0  0  0  0  0  0  0  0  0  0
   34.5154   37.0961   97.3172 H   0  0  0  0  0  0  0  0  0  0  0  0
   33.5168   37.3900   95.8489 H   0  0  0  0  0  0  0  0  0  0  0  0
   32.5917   35.0272   96.0412 H   0  0  0  0  0  0  0  0  0  0  0  0
   33.5902   34.7680   97.5186 H   0  0  0  0  0  0  0  0  0  0  0  0
  1  6  2  0
  1  2  1  0
  1 30  1  0
  2  3  2  0
  2  7  1  0
  3  4  1  0
  3 31  1  0
  4  5  2  0
  4 32  1  0
  5 12  1  0
  5  6  1  0
  6 33  1  0
  7  8  1  0
  8  9  1  6
  8 10  1  0
  8 11  1  0
 12 16  2  0
 12 13  1  0
 13 14  1  0
 13 17  1  0
 14 15  2  0
 28 14  1  6
 15 16  1  0
 17 18  1  0
 17 19  1  0
 17 34  1  1
 18 35  1  0
 18 36  1  0
 18 37  1  0
 19 38  1  0
 19 39  1  0
 19 40  1  0
 20 28  1  0
 20 21  2  0
 20 25  1  0
 21 22  1  0
 21 41  1  0
 22 23  2  0
 22 42  1  0
 23 24  1  0
 23 26  1  0
 24 25  2  0
 24 43  1  0
 25 44  1  0
 27 28  1  0
 27 29  1  0
 27 45  1  0
 27 46  1  0
 28 29  1  0
 29 47  1  0
 29 48  1  0
M  END
>  <Name>  (28) 
BDB50263346

>  <Target>  (28) 
11-beta-Hydroxysteroid Dehydrogenase 1 (11-beta-HSD1)

>  <IC50_in_nM>  (28) 
 1.6

>  <Kd_from_ITC>  (28) 
false

>  <Uniprot_ID>  (28) 
P28845

>  <source_organism>  (28) 
Homo sapiens

>  <SourceTag>  (28) 
11betaHSD1

>  <s_i_glide_gridfile>  (28) 
11betahsd1_glide-grid

>  <i_i_glide_lignum>  (28) 
17

>  <i_i_glide_rotatable_bonds>  (28) 
6

>  <r_i_docking_score>  (28) 
-9.66896153569709

>  <r_i_glide_ligand_efficiency>  (28) 
-0.333412466748175

>  <r_i_glide_ligand_efficiency_sa>  (28) 
-1.02434873033408

>  <r_i_glide_ligand_efficiency_ln>  (28) 
-2.21394700796512

>  <r_i_glide_gscore>  (28) 
-9.66896153569709

>  <r_i_glide_lipo>  (28) 
-5.21870932971252

>  <r_i_glide_hbond>  (28) 
0

>  <r_i_glide_metal>  (28) 
-0

>  <r_i_glide_rewards>  (28) 
-2.73942245596704

>  <r_i_glide_evdw>  (28) 
-36.4971199035645

>  <r_i_glide_ecoul>  (28) 
-2.33686256408691

>  <r_i_glide_erotb>  (28) 
0.478331480025323

>  <r_i_glide_esite>  (28) 
-0.0137758502515884

>  <r_i_glide_emodel>  (28) 
-56.8313363967787

>  <r_i_glide_energy>  (28) 
-38.8339824676514

>  <r_i_glide_einternal>  (28) 
11.0170116424561

>  <i_i_glide_confnum>  (28) 
93

>  <i_i_glide_posenum>  (28) 
351

>  <r_i_glide_eff_state_penalty>  (28) 
0

$$$$
BDB50273861-5-0000
     RDKit          3D

 53 56  0  0  1  0  0  0  0  0999 V2000
   37.4128   33.6262   95.5919 C   0  0  0  0  0  0  0  0  0  0  0  0
   36.3582   34.2538   96.5187 C   0  0  0  0  0  0  0  0  0  0  0  0
   35.4406   35.2226   95.7527 C   0  0  0  0  0  0  0  0  0  0  0  0
   36.7564   32.8954   94.4058 C   0  0  0  0  0  0  0  0  0  0  0  0
   35.8425   33.8444   93.5876 C   0  0  2  0  0  0  0  0  0  0  0  0
   34.8031   34.5958   94.4880 C   0  0  2  0  0  0  0  0  0  0  0  0
   33.8941   35.5823   93.7205 C   0  0  0  0  0  0  0  0  0  0  0  0
   33.4498   35.0515   92.3512 C   0  0  0  0  0  0  0  0  0  0  0  0
   34.6282   34.4639   91.5519 C   0  0  0  0  0  0  0  0  0  0  0  0
   35.1812   33.3532   92.3408 N   0  0  0  0  0  0  0  0  0  0  0  0
   34.7720   32.0626   92.1296 C   0  0  0  0  0  0  0  0  0  0  0  0
   34.2046   31.6603   90.7844 C   0  0  0  0  0  0  0  0  0  0  0  0
   34.9151   31.1643   92.9526 O   0  0  0  0  0  0  0  0  0  0  0  0
   34.8698   30.6856   90.0253 C   0  0  0  0  0  0  0  0  0  0  0  0
   34.3555   30.2551   88.7981 C   0  0  0  0  0  0  0  0  0  0  0  0
   33.1534   30.8040   88.3284 C   0  0  0  0  0  0  0  0  0  0  0  0
   32.4740   31.7566   89.0827 C   0  0  0  0  0  0  0  0  0  0  0  0
   32.9874   32.1686   90.3102 C   0  0  0  0  0  0  0  0  0  0  0  0
   35.0252   29.2034   88.1478 N   0  0  0  0  0  0  0  0  0  0  0  0
   34.9154   28.8167   86.8575 C   0  0  0  0  0  0  0  0  0  0  0  0
   35.2743   27.3622   86.5524 C   0  0  0  0  0  0  0  0  0  0  0  0
   34.5145   29.5599   85.9591 O   0  0  0  0  0  0  0  0  0  0  0  0
   35.0295   26.8568   85.2686 C   0  0  0  0  0  0  0  0  0  0  0  0
   35.2666   25.5190   84.9664 C   0  0  0  0  0  0  0  0  0  0  0  0
   35.7393   24.6616   85.9538 C   0  0  0  0  0  0  0  0  0  0  0  0
   35.9585   25.1264   87.2459 C   0  0  0  0  0  0  0  0  0  0  0  0
   35.7154   26.4637   87.5462 C   0  0  0  0  0  0  0  0  0  0  0  0
   38.0367   32.9283   96.1511 H   0  0  0  0  0  0  0  0  0  0  0  0
   38.0876   34.3989   95.2224 H   0  0  0  0  0  0  0  0  0  0  0  0
   35.7560   33.4660   96.9735 H   0  0  0  0  0  0  0  0  0  0  0  0
   36.8480   34.7754   97.3426 H   0  0  0  0  0  0  0  0  0  0  0  0
   36.0200   36.1006   95.4619 H   0  0  0  0  0  0  0  0  0  0  0  0
   34.6636   35.6056   96.4156 H   0  0  0  0  0  0  0  0  0  0  0  0
   36.1850   32.0615   94.8093 H   0  0  0  0  0  0  0  0  0  0  0  0
   37.5271   32.4690   93.7633 H   0  0  0  0  0  0  0  0  0  0  0  0
   36.5338   34.6091   93.2314 H   0  0  0  0  0  0  0  0  0  0  0  0
   34.1526   33.7884   94.8325 H   0  0  0  0  0  0  0  0  0  0  0  0
   34.4708   36.4891   93.5337 H   0  0  0  0  0  0  0  0  0  0  0  0
   33.0497   35.8996   94.3329 H   0  0  0  0  0  0  0  0  0  0  0  0
   32.9856   35.8572   91.7813 H   0  0  0  0  0  0  0  0  0  0  0  0
   32.6743   34.3000   92.4977 H   0  0  0  0  0  0  0  0  0  0  0  0
   35.4177   35.2110   91.4596 H   0  0  0  0  0  0  0  0  0  0  0  0
   34.4332   34.2253   90.5081 H   0  0  0  0  0  0  0  0  0  0  0  0
   35.7859   30.2508   90.4036 H   0  0  0  0  0  0  0  0  0  0  0  0
   32.7122   30.4714   87.4018 H   0  0  0  0  0  0  0  0  0  0  0  0
   31.5358   32.1544   88.7266 H   0  0  0  0  0  0  0  0  0  0  0  0
   32.4184   32.8784   90.8887 H   0  0  0  0  0  0  0  0  0  0  0  0
   35.5616   28.5990   88.7501 H   0  0  0  0  0  0  0  0  0  0  0  0
   34.6216   27.4909   84.4966 H   0  0  0  0  0  0  0  0  0  0  0  0
   35.0765   25.1490   83.9702 H   0  0  0  0  0  0  0  0  0  0  0  0
   35.9322   23.6255   85.7179 H   0  0  0  0  0  0  0  0  0  0  0  0
   36.3206   24.4552   88.0107 H   0  0  0  0  0  0  0  0  0  0  0  0
   35.9047   26.7947   88.5524 H   0  0  0  0  0  0  0  0  0  0  0  0
  1  2  1  0
  1  4  1  0
  1 28  1  0
  1 29  1  0
  2  3  1  0
  2 30  1  0
  2 31  1  0
  3  6  1  0
  3 32  1  0
  3 33  1  0
  4  5  1  0
  4 34  1  0
  4 35  1  0
  5 10  1  0
  5  6  1  0
  5 36  1  6
  6  7  1  0
  6 37  1  1
  7  8  1  0
  7 38  1  0
  7 39  1  0
  8  9  1  0
  8 40  1  0
  8 41  1  0
  9 10  1  0
  9 42  1  0
  9 43  1  0
 10 11  1  0
 11 12  1  0
 11 13  2  0
 12 14  2  0
 12 18  1  0
 14 15  1  0
 14 44  1  0
 15 16  2  0
 15 19  1  0
 16 17  1  0
 16 45  1  0
 17 18  2  0
 17 46  1  0
 18 47  1  0
 19 20  1  0
 19 48  1  0
 20 21  1  0
 20 22  2  0
 21 23  2  0
 21 27  1  0
 23 24  1  0
 23 49  1  0
 24 25  2  0
 24 50  1  0
 25 26  1  0
 25 51  1  0
 26 27  2  0
 26 52  1  0
 27 53  1  0
M  END
>  <Name>  (29) 
BDB50273861

>  <Target>  (29) 
11-beta-Hydroxysteroid Dehydrogenase 1 (11-beta-HSD1)

>  <IC50_in_nM>  (29) 
 14

>  <Kd_from_ITC>  (29) 
false

>  <Uniprot_ID>  (29) 
P28845

>  <source_organism>  (29) 
Homo sapiens

>  <SourceTag>  (29) 
11betaHSD1

>  <s_i_glide_gridfile>  (29) 
11betahsd1_glide-grid

>  <i_i_glide_lignum>  (29) 
6

>  <i_i_glide_rotatable_bonds>  (29) 
5

>  <r_i_docking_score>  (29) 
-7.60440329570355

>  <r_i_glide_ligand_efficiency>  (29) 
-0.281644566507539

>  <r_i_glide_ligand_efficiency_sa>  (29) 
-0.844933698594363

>  <r_i_glide_ligand_efficiency_ln>  (29) 
-1.77017971885339

>  <r_i_glide_gscore>  (29) 
-7.60440329570355

>  <r_i_glide_lipo>  (29) 
-4.0008827188247

>  <r_i_glide_hbond>  (29) 
-0.119872040484877

>  <r_i_glide_metal>  (29) 
-0

>  <r_i_glide_rewards>  (29) 
-2.32148575485283

>  <r_i_glide_evdw>  (29) 
-37.5564117431641

>  <r_i_glide_ecoul>  (29) 
-0.100871212780476

>  <r_i_glide_erotb>  (29) 
0.73078848753412

>  <r_i_glide_esite>  (29) 
0

>  <r_i_glide_emodel>  (29) 
-48.9246685541938

>  <r_i_glide_energy>  (29) 
-37.6572829559445

>  <r_i_glide_einternal>  (29) 
8.58904838562012

>  <i_i_glide_confnum>  (29) 
43

>  <i_i_glide_posenum>  (29) 
152

>  <r_i_glide_eff_state_penalty>  (29) 
0

$$$$
BDB50294771-3-0000
     RDKit          3D

 65 68  0  0  1  0  0  0  0  0999 V2000
   33.7910   35.6397   94.9678 C   0  0  2  0  0  0  0  0  0  0  0  0
   33.7506   34.9718   96.3618 C   0  0  0  0  0  0  0  0  0  0  0  0
   33.4627   36.0590   97.3843 C   0  0  0  0  0  0  0  0  0  0  0  0
   32.7047   37.1258   96.6044 C   0  0  0  0  0  0  0  0  0  0  0  0
   32.6559   36.6638   95.1354 C   0  0  0  0  0  0  0  0  0  0  0  0
   35.9648   30.4251   89.6477 C   0  0  0  0  0  0  0  0  0  0  0  0
   36.1224   31.9613   89.7571 C   0  0  1  0  0  0  0  0  0  0  0  0
   34.6862   29.9400   90.3653 C   0  0  2  0  0  0  0  0  0  0  0  0
   34.8549   32.6074   89.1296 C   0  0  0  0  0  0  0  0  0  0  0  0
   33.4675   30.6518   89.7412 C   0  0  0  0  0  0  0  0  0  0  0  0
   33.5353   32.1938   89.8720 C   0  0  1  0  0  0  0  0  0  0  0  0
   34.7799   30.3743   91.8465 C   0  0  0  0  0  0  0  0  0  0  0  0
   34.9100   31.9041   92.0413 C   0  0  1  0  0  0  0  0  0  0  0  0
   36.1900   32.3288   91.2634 C   0  0  0  0  0  0  0  0  0  0  0  0
   33.6825   32.6236   91.3781 C   0  0  1  0  0  0  0  0  0  0  0  0
   33.8047   34.0808   91.3935 N   0  0  0  0  0  0  0  0  0  0  0  0
   33.7034   34.9682   92.3870 C   0  0  0  0  0  0  0  0  0  0  0  0
   33.5030   34.5566   93.8571 C   0  0  0  0  0  0  0  0  0  0  0  0
   33.7154   36.1455   92.0756 O   0  0  0  0  0  0  0  0  0  0  0  0
   35.1079   36.4526   94.7386 C   0  0  0  0  0  0  0  0  0  0  0  0
   36.4408   35.7216   94.7489 C   0  0  0  0  0  0  0  0  0  0  0  0
   36.4716   34.4193   95.0594 N   0  0  0  0  0  0  0  0  0  0  0  0
   37.4449   36.3862   94.5525 O   0  0  0  0  0  0  0  0  0  0  0  0
   37.6636   33.6717   95.4190 C   0  0  0  0  0  0  0  0  0  0  0  0
   38.4287   34.2792   96.6204 C   0  0  1  0  0  0  0  0  0  0  0  0
   37.5839   34.4577   97.9002 C   0  0  0  0  0  0  0  0  0  0  0  0
   39.7154   33.5224   96.8817 C   0  0  0  0  0  0  0  0  0  0  0  0
   32.9155   34.2854   96.3425 H   0  0  0  0  0  0  0  0  0  0  0  0
   34.6001   34.3572   96.6477 H   0  0  0  0  0  0  0  0  0  0  0  0
   32.8925   35.6733   98.2282 H   0  0  0  0  0  0  0  0  0  0  0  0
   34.3947   36.4638   97.7796 H   0  0  0  0  0  0  0  0  0  0  0  0
   31.7176   37.2636   97.0361 H   0  0  0  0  0  0  0  0  0  0  0  0
   33.2484   38.0640   96.6752 H   0  0  0  0  0  0  0  0  0  0  0  0
   32.6991   37.4843   94.4159 H   0  0  0  0  0  0  0  0  0  0  0  0
   31.7154   36.1633   94.9394 H   0  0  0  0  0  0  0  0  0  0  0  0
   36.8418   29.9292   90.0680 H   0  0  0  0  0  0  0  0  0  0  0  0
   35.9332   30.1154   88.6023 H   0  0  0  0  0  0  0  0  0  0  0  0
   37.0293   32.3238   89.2762 H   0  0  0  0  0  0  0  0  0  0  0  0
   34.5767   28.8637   90.2648 H   0  0  0  0  0  0  0  0  0  0  0  0
   34.7886   32.3268   88.0769 H   0  0  0  0  0  0  0  0  0  0  0  0
   34.9721   33.6888   89.1096 H   0  0  0  0  0  0  0  0  0  0  0  0
   32.5262   30.2852   90.1543 H   0  0  0  0  0  0  0  0  0  0  0  0
   33.4100   30.3861   88.6837 H   0  0  0  0  0  0  0  0  0  0  0  0
   32.6633   32.6621   89.4096 H   0  0  0  0  0  0  0  0  0  0  0  0
   35.6175   29.8659   92.3278 H   0  0  0  0  0  0  0  0  0  0  0  0
   33.8947   30.0614   92.3987 H   0  0  0  0  0  0  0  0  0  0  0  0
   35.0250   32.1158   93.1008 H   0  0  0  0  0  0  0  0  0  0  0  0
   36.3657   33.4004   91.3752 H   0  0  0  0  0  0  0  0  0  0  0  0
   37.0672   31.8657   91.7146 H   0  0  0  0  0  0  0  0  0  0  0  0
   32.7741   32.3652   91.9270 H   0  0  0  0  0  0  0  0  0  0  0  0
   33.9574   34.4885   90.4842 H   0  0  0  0  0  0  0  0  0  0  0  0
   34.1247   33.6954   94.0602 H   0  0  0  0  0  0  0  0  0  0  0  0
   32.4820   34.1891   93.9490 H   0  0  0  0  0  0  0  0  0  0  0  0
   35.2084   37.2058   95.5220 H   0  0  0  0  0  0  0  0  0  0  0  0
   35.0705   37.0436   93.8267 H   0  0  0  0  0  0  0  0  0  0  0  0
   35.5905   33.9483   95.1891 H   0  0  0  0  0  0  0  0  0  0  0  0
   38.3171   33.5768   94.5523 H   0  0  0  0  0  0  0  0  0  0  0  0
   37.3417   32.6582   95.6639 H   0  0  0  0  0  0  0  0  0  0  0  0
   38.7686   35.2656   96.3234 H   0  0  0  0  0  0  0  0  0  0  0  0
   37.1498   33.5194   98.2378 H   0  0  0  0  0  0  0  0  0  0  0  0
   36.7604   35.1555   97.7424 H   0  0  0  0  0  0  0  0  0  0  0  0
   38.1850   34.8542   98.7179 H   0  0  0  0  0  0  0  0  0  0  0  0
   39.5375   32.5179   97.2639 H   0  0  0  0  0  0  0  0  0  0  0  0
   40.2696   33.4387   95.9441 H   0  0  0  0  0  0  0  0  0  0  0  0
   40.3423   34.0634   97.5943 H   0  0  0  0  0  0  0  0  0  0  0  0
  1  5  1  0
  1  2  1  0
  1 18  1  6
  1 20  1  0
  2  3  1  0
  2 28  1  0
  2 29  1  0
  3  4  1  0
  3 30  1  0
  3 31  1  0
  4  5  1  0
  4 32  1  0
  4 33  1  0
  5 34  1  0
  5 35  1  0
  6  7  1  0
  6  8  1  0
  6 36  1  0
  6 37  1  0
  7 14  1  0
  7  9  1  0
  7 38  1  6
  8 12  1  0
  8 10  1  0
  8 39  1  1
  9 11  1  0
  9 40  1  0
  9 41  1  0
 10 11  1  0
 10 42  1  0
 10 43  1  0
 11 15  1  0
 11 44  1  6
 12 13  1  0
 12 45  1  0
 12 46  1  0
 13 15  1  0
 13 14  1  0
 13 47  1  1
 14 48  1  0
 14 49  1  0
 15 16  1  0
 15 50  1  1
 16 17  1  0
 16 51  1  0
 17 18  1  0
 17 19  2  0
 18 52  1  0
 18 53  1  0
 20 21  1  0
 20 54  1  0
 20 55  1  0
 21 22  1  0
 21 23  2  0
 22 24  1  0
 22 56  1  0
 24 25  1  0
 24 57  1  0
 24 58  1  0
 25 26  1  0
 25 27  1  0
 25 59  1  6
 26 60  1  0
 26 61  1  0
 26 62  1  0
 27 63  1  0
 27 64  1  0
 27 65  1  0
M  END
>  <Name>  (30) 
BDB50294771

>  <Target>  (30) 
11-beta-Hydroxysteroid Dehydrogenase 1 (11-beta-HSD1)

>  <IC50_in_nM>  (30) 
 9

>  <Kd_from_ITC>  (30) 
false

>  <Uniprot_ID>  (30) 
P28845

>  <source_organism>  (30) 
Homo sapiens

>  <SourceTag>  (30) 
11betaHSD1

>  <s_i_glide_gridfile>  (30) 
11betahsd1_glide-grid

>  <i_i_glide_lignum>  (30) 
4

>  <i_i_glide_rotatable_bonds>  (30) 
9

>  <r_i_docking_score>  (30) 
-7.49319065815426

>  <r_i_glide_ligand_efficiency>  (30) 
-0.277525579931639

>  <r_i_glide_ligand_efficiency_sa>  (30) 
-0.832576738880239

>  <r_i_glide_ligand_efficiency_ln>  (30) 
-1.74429125031554

>  <r_i_glide_gscore>  (30) 
-7.49319065815426

>  <r_i_glide_lipo>  (30) 
-5.60999916557054

>  <r_i_glide_hbond>  (30) 
-0.312808500191089

>  <r_i_glide_metal>  (30) 
-0

>  <r_i_glide_rewards>  (30) 
0.335362495601402

>  <r_i_glide_evdw>  (30) 
-36.590705871582

>  <r_i_glide_ecoul>  (30) 
-5.01061582565308

>  <r_i_glide_erotb>  (30) 
0.675382179433023

>  <r_i_glide_esite>  (30) 
0

>  <r_i_glide_emodel>  (30) 
-47.0898624952531

>  <r_i_glide_energy>  (30) 
-41.6013216972351

>  <r_i_glide_einternal>  (30) 
6.85052871704102

>  <i_i_glide_confnum>  (30) 
137

>  <i_i_glide_posenum>  (30) 
95

>  <r_i_glide_eff_state_penalty>  (30) 
0

$$$$
BDB50294781-0-0000
     RDKit          3D

 59 62  0  0  1  0  0  0  0  0999 V2000
   34.8213   31.3227   88.9025 C   0  0  0  0  0  0  0  0  0  0  0  0
   35.8618   30.7389   89.8873 C   0  0  2  0  0  0  0  0  0  0  0  0
   33.9213   32.3727   89.5870 C   0  0  1  0  0  0  0  0  0  0  0  0
   35.1063   30.1113   91.0781 C   0  0  0  0  0  0  0  0  0  0  0  0
   33.2003   31.6744   90.7753 C   0  0  0  0  0  0  0  0  0  0  0  0
   34.1984   31.1204   91.8466 C   0  0  2  0  0  0  0  0  0  0  0  0
   34.8449   33.4958   90.1422 C   0  0  0  0  0  0  0  0  0  0  0  0
   35.8697   32.9713   91.2009 C   0  0  2  0  0  0  0  0  0  0  0  0
   36.7086   31.8968   90.4556 C   0  0  0  0  0  0  0  0  0  0  0  0
   35.0456   32.3308   92.3759 C   0  0  1  0  0  0  0  0  0  0  0  0
   34.1623   33.3505   92.9663 N   0  0  0  0  0  0  0  0  0  0  0  0
   34.5441   34.3030   93.8336 C   0  0  0  0  0  0  0  0  0  0  0  0
   33.5640   35.4819   93.9741 C   0  0  0  0  0  0  0  0  0  0  0  0
   35.6350   34.2939   94.3992 O   0  0  0  0  0  0  0  0  0  0  0  0
   33.6107   36.4039   95.2412 C   0  0  1  0  0  0  0  0  0  0  0  0
   33.0681   35.6330   96.4808 C   0  0  0  0  0  0  0  0  0  0  0  0
   35.0201   36.9737   95.5107 C   0  0  0  0  0  0  0  0  0  0  0  0
   32.6817   37.5947   94.9318 C   0  0  0  0  0  0  0  0  0  0  0  0
   32.9162   36.4055   97.7997 C   0  0  0  0  0  0  0  0  0  0  0  0
   34.0392   36.8644   98.3839 O   0  0  0  0  0  0  0  0  0  0  0  0
   33.6072   37.5250   99.5393 N   0  0  0  0  0  0  0  0  0  0  0  0
   32.3235   37.2638   99.5828 C   0  0  0  0  0  0  0  0  0  0  0  0
   31.8542   36.5862   98.5522 N   0  0  0  0  0  0  0  0  0  0  0  0
   31.4347   37.7477  100.7289 C   0  0  1  0  0  0  0  0  0  0  0  0
   30.3805   36.6977  101.1439 C   0  0  0  0  0  0  0  0  0  0  0  0
   32.2157   38.2432  101.9659 C   0  0  0  0  0  0  0  0  0  0  0  0
   35.3155   31.7747   88.0439 H   0  0  0  0  0  0  0  0  0  0  0  0
   34.2110   30.5186   88.4897 H   0  0  0  0  0  0  0  0  0  0  0  0
   36.4941   30.0006   89.3898 H   0  0  0  0  0  0  0  0  0  0  0  0
   33.1981   32.7841   88.8808 H   0  0  0  0  0  0  0  0  0  0  0  0
   35.8211   29.6681   91.7739 H   0  0  0  0  0  0  0  0  0  0  0  0
   34.5155   29.2674   90.7169 H   0  0  0  0  0  0  0  0  0  0  0  0
   32.5869   30.8586   90.3909 H   0  0  0  0  0  0  0  0  0  0  0  0
   32.4838   32.3593   91.2299 H   0  0  0  0  0  0  0  0  0  0  0  0
   33.6743   30.6232   92.6642 H   0  0  0  0  0  0  0  0  0  0  0  0
   34.2410   34.3054   90.5524 H   0  0  0  0  0  0  0  0  0  0  0  0
   35.3940   33.9576   89.3220 H   0  0  0  0  0  0  0  0  0  0  0  0
   36.5094   33.7781   91.5615 H   0  0  0  0  0  0  0  0  0  0  0  0
   37.2747   32.3693   89.6512 H   0  0  0  0  0  0  0  0  0  0  0  0
   37.4660   31.5033   91.1328 H   0  0  0  0  0  0  0  0  0  0  0  0
   35.7153   31.9643   93.1579 H   0  0  0  0  0  0  0  0  0  0  0  0
   33.2699   33.4589   92.5124 H   0  0  0  0  0  0  0  0  0  0  0  0
   32.5506   35.0892   93.8631 H   0  0  0  0  0  0  0  0  0  0  0  0
   33.7331   36.0956   93.0884 H   0  0  0  0  0  0  0  0  0  0  0  0
   33.6951   34.7597   96.6642 H   0  0  0  0  0  0  0  0  0  0  0  0
   32.1154   35.2392   96.1526 H   0  0  0  0  0  0  0  0  0  0  0  0
   35.5230   37.2644   94.5883 H   0  0  0  0  0  0  0  0  0  0  0  0
   34.9535   37.8603   96.1383 H   0  0  0  0  0  0  0  0  0  0  0  0
   35.6656   36.2631   96.0294 H   0  0  0  0  0  0  0  0  0  0  0  0
   33.1014   38.2572   94.1764 H   0  0  0  0  0  0  0  0  0  0  0  0
   31.7141   37.2637   94.5569 H   0  0  0  0  0  0  0  0  0  0  0  0
   32.5155   38.1876   95.8261 H   0  0  0  0  0  0  0  0  0  0  0  0
   30.9152   38.6233  100.3438 H   0  0  0  0  0  0  0  0  0  0  0  0
   29.7175   36.4465  100.3150 H   0  0  0  0  0  0  0  0  0  0  0  0
   29.7492   37.0695  101.9522 H   0  0  0  0  0  0  0  0  0  0  0  0
   30.8472   35.7730  101.4845 H   0  0  0  0  0  0  0  0  0  0  0  0
   32.8562   39.0910  101.7194 H   0  0  0  0  0  0  0  0  0  0  0  0
   31.5392   38.5703  102.7564 H   0  0  0  0  0  0  0  0  0  0  0  0
   32.8465   37.4560  102.3789 H   0  0  0  0  0  0  0  0  0  0  0  0
  1  3  1  0
  1  2  1  0
  1 27  1  0
  1 28  1  0
  2  4  1  0
  2  9  1  0
  2 29  1  6
  3  5  1  0
  3  7  1  0
  3 30  1  6
  4  6  1  0
  4 31  1  0
  4 32  1  0
  5  6  1  0
  5 33  1  0
  5 34  1  0
  6 10  1  0
  6 35  1  1
  7  8  1  0
  7 36  1  0
  7 37  1  0
  8 10  1  0
  8  9  1  0
  8 38  1  1
  9 39  1  0
  9 40  1  0
 10 11  1  0
 10 41  1  1
 11 12  1  0
 11 42  1  0
 12 13  1  0
 12 14  2  0
 15 13  1  6
 13 43  1  0
 13 44  1  0
 15 16  1  0
 15 17  1  0
 15 18  1  0
 16 19  1  0
 16 45  1  0
 16 46  1  0
 17 47  1  0
 17 48  1  0
 17 49  1  0
 18 50  1  0
 18 51  1  0
 18 52  1  0
 19 20  1  0
 19 23  2  0
 20 21  1  0
 21 22  2  0
 22 23  1  0
 22 24  1  0
 24 25  1  0
 24 26  1  0
 24 53  1  6
 25 54  1  0
 25 55  1  0
 25 56  1  0
 26 57  1  0
 26 58  1  0
 26 59  1  0
M  END
>  <Name>  (31) 
BDB50294781

>  <Target>  (31) 
11-beta-Hydroxysteroid Dehydrogenase 1 (11-beta-HSD1)

>  <IC50_in_nM>  (31) 
 8

>  <Kd_from_ITC>  (31) 
false

>  <Uniprot_ID>  (31) 
P28845

>  <source_organism>  (31) 
Homo sapiens

>  <SourceTag>  (31) 
11betaHSD1

>  <s_i_glide_gridfile>  (31) 
11betahsd1_glide-grid

>  <i_i_glide_lignum>  (31) 
1

>  <i_i_glide_rotatable_bonds>  (31) 
7

>  <r_i_docking_score>  (31) 
-8.29238018003718

>  <r_i_glide_ligand_efficiency>  (31) 
-0.318937699232199

>  <r_i_glide_ligand_efficiency_sa>  (31) 
-0.944851679016144

>  <r_i_glide_ligand_efficiency_ln>  (31) 
-1.94743827576305

>  <r_i_glide_gscore>  (31) 
-8.29238018003718

>  <r_i_glide_lipo>  (31) 
-4.23220746186064

>  <r_i_glide_hbond>  (31) 
-0.32

>  <r_i_glide_metal>  (31) 
-0

>  <r_i_glide_rewards>  (31) 
-2.57065233891693

>  <r_i_glide_evdw>  (31) 
-28.3454513549805

>  <r_i_glide_ecoul>  (31) 
-2.26934289932251

>  <r_i_glide_erotb>  (31) 
0.741548528389799

>  <r_i_glide_esite>  (31) 
-0.153394905002011

>  <r_i_glide_emodel>  (31) 
-44.8914634082995

>  <r_i_glide_energy>  (31) 
-30.614794254303

>  <r_i_glide_einternal>  (31) 
3.53901934623718

>  <i_i_glide_confnum>  (31) 
10

>  <i_i_glide_posenum>  (31) 
165

>  <r_i_glide_eff_state_penalty>  (31) 
0

$$$$
BDB50295378-6-0000
     RDKit          3D

 53 55  0  0  1  0  0  0  0  0999 V2000
   32.9907   32.4942   91.5233 C   0  0  0  0  0  0  0  0  0  0  0  0
   33.3245   33.1798   92.8791 C   0  0  0  0  0  0  0  0  0  0  0  0
   34.3748   34.2043   92.7029 N   0  0  0  0  0  0  0  0  0  0  0  0
   35.5869   33.7295   92.0038 C   0  0  2  0  0  0  0  0  0  0  0  0
   35.1398   33.2456   90.6149 C   0  0  0  0  0  0  0  0  0  0  0  0
   34.1729   32.1309   90.7021 N   0  0  0  0  0  0  0  0  0  0  0  0
   36.2932   32.6327   92.8400 C   0  0  0  0  0  0  0  0  0  0  0  0
   34.2681   31.1258   89.7444 C   0  0  0  0  0  0  0  0  0  0  0  0
   35.4170   30.3277   89.8190 C   0  0  0  0  0  0  0  0  0  0  0  0
   35.7152   29.3928   88.8349 C   0  0  0  0  0  0  0  0  0  0  0  0
   34.9153   29.2991   87.7040 C   0  0  0  0  0  0  0  0  0  0  0  0
   33.7587   30.0638   87.6181 C   0  0  0  0  0  0  0  0  0  0  0  0
   33.3879   30.9379   88.6495 C   0  0  0  0  0  0  0  0  0  0  0  0
   32.0344   31.6329   88.5500 C   0  0  1  0  0  0  0  0  0  0  0  0
   32.1725   32.9538   88.5520 F   0  0  0  0  0  0  0  0  0  0  0  0
   31.3156   31.2661   87.4837 F   0  0  0  0  0  0  0  0  0  0  0  0
   31.3156   31.2648   89.5868 F   0  0  0  0  0  0  0  0  0  0  0  0
   35.2380   28.4614   86.6942 F   0  0  0  0  0  0  0  0  0  0  0  0
   34.4592   35.6266   93.7557 S   0  0  1  0  0  0  0  0  0  0  0  0
   35.6906   35.2161   95.0124 C   0  0  0  0  0  0  0  0  0  0  0  0
   35.3863   34.7438   96.2984 C   0  0  0  0  0  0  0  0  0  0  0  0
   36.4168   34.3885   97.1683 C   0  0  0  0  0  0  0  0  0  0  0  0
   37.7682   34.4635   96.7963 C   0  0  0  0  0  0  0  0  0  0  0  0
   38.0511   34.9262   95.5026 C   0  0  0  0  0  0  0  0  0  0  0  0
   37.0330   35.3254   94.6415 C   0  0  0  0  0  0  0  0  0  0  0  0
   35.0538   36.6997   92.9526 O   0  0  0  0  0  0  0  0  0  0  0  0
   33.1441   35.8247   94.3742 O   0  0  0  0  0  0  0  0  0  0  0  0
   33.7743   34.5669   96.8851 Cl  0  0  0  0  0  0  0  0  0  0  0  0
   38.8086   34.1213   97.7055 N   0  0  0  0  0  0  0  0  0  0  0  0
   40.1915   34.4638   97.3874 C   0  0  0  0  0  0  0  0  0  0  0  0
   38.5183   34.0644   99.1367 C   0  0  0  0  0  0  0  0  0  0  0  0
   32.5143   33.2553   90.9060 H   0  0  0  0  0  0  0  0  0  0  0  0
   32.3061   31.6636   91.6680 H   0  0  0  0  0  0  0  0  0  0  0  0
   32.4329   33.6410   93.3016 H   0  0  0  0  0  0  0  0  0  0  0  0
   33.6960   32.4151   93.5612 H   0  0  0  0  0  0  0  0  0  0  0  0
   36.2529   34.5845   91.8807 H   0  0  0  0  0  0  0  0  0  0  0  0
   36.0153   32.9619   90.0276 H   0  0  0  0  0  0  0  0  0  0  0  0
   34.6806   34.0650   90.0586 H   0  0  0  0  0  0  0  0  0  0  0  0
   37.2951   32.4630   92.4483 H   0  0  0  0  0  0  0  0  0  0  0  0
   36.4012   32.8861   93.8909 H   0  0  0  0  0  0  0  0  0  0  0  0
   35.7653   31.6803   92.8048 H   0  0  0  0  0  0  0  0  0  0  0  0
   36.1002   30.4388   90.6490 H   0  0  0  0  0  0  0  0  0  0  0  0
   36.6009   28.7828   88.9297 H   0  0  0  0  0  0  0  0  0  0  0  0
   33.1375   29.9445   86.7433 H   0  0  0  0  0  0  0  0  0  0  0  0
   36.1320   34.0545   98.1522 H   0  0  0  0  0  0  0  0  0  0  0  0
   39.0654   35.0146   95.1456 H   0  0  0  0  0  0  0  0  0  0  0  0
   37.2988   35.6866   93.6600 H   0  0  0  0  0  0  0  0  0  0  0  0
   40.5019   34.0608   96.4268 H   0  0  0  0  0  0  0  0  0  0  0  0
   40.3138   35.5455   97.3532 H   0  0  0  0  0  0  0  0  0  0  0  0
   40.8840   34.0767   98.1370 H   0  0  0  0  0  0  0  0  0  0  0  0
   37.7161   33.3618   99.3518 H   0  0  0  0  0  0  0  0  0  0  0  0
   39.3847   33.7498   99.7210 H   0  0  0  0  0  0  0  0  0  0  0  0
   38.2146   35.0495   99.4932 H   0  0  0  0  0  0  0  0  0  0  0  0
  1  2  1  0
  1  6  1  0
  1 32  1  0
  1 33  1  0
  2  3  1  0
  2 34  1  0
  2 35  1  0
 19  3  1  6
  3  4  1  0
  4  5  1  0
  4  7  1  0
  4 36  1  6
  5  6  1  0
  5 37  1  0
  5 38  1  0
  6  8  1  0
  7 39  1  0
  7 40  1  0
  7 41  1  0
  8  9  2  0
  8 13  1  0
  9 10  1  0
  9 42  1  0
 10 11  2  0
 10 43  1  0
 11 18  1  0
 11 12  1  0
 12 13  2  0
 12 44  1  0
 13 14  1  0
 14 15  1  1
 14 16  1  0
 14 17  1  0
 19 20  1  0
 19 26  2  0
 19 27  2  0
 20 21  2  0
 20 25  1  0
 21 22  1  0
 21 28  1  0
 22 23  2  0
 22 45  1  0
 23 24  1  0
 23 29  1  0
 24 25  2  0
 24 46  1  0
 25 47  1  0
 29 30  1  0
 29 31  1  0
 30 48  1  0
 30 49  1  0
 30 50  1  0
 31 51  1  0
 31 52  1  0
 31 53  1  0
M  END
>  <Name>  (32) 
BDB50295378

>  <Target>  (32) 
11-beta-Hydroxysteroid Dehydrogenase 1 (11-beta-HSD1)

>  <IC50_in_nM>  (32) 
 15

>  <Kd_from_ITC>  (32) 
false

>  <Uniprot_ID>  (32) 
P28845

>  <source_organism>  (32) 
Homo sapiens

>  <SourceTag>  (32) 
11betaHSD1

>  <s_i_glide_gridfile>  (32) 
11betahsd1_glide-grid

>  <i_i_glide_lignum>  (32) 
7

>  <i_i_glide_rotatable_bonds>  (32) 
5

>  <r_i_docking_score>  (32) 
-9.47542899444046

>  <r_i_glide_ligand_efficiency>  (32) 
-0.30565899982066

>  <r_i_glide_ligand_efficiency_sa>  (32) 
-0.960191267166831

>  <r_i_glide_ligand_efficiency_ln>  (32) 
-2.13699962527084

>  <r_i_glide_gscore>  (32) 
-9.47542899444046

>  <r_i_glide_lipo>  (32) 
-4.83690182195406

>  <r_i_glide_hbond>  (32) 
0

>  <r_i_glide_metal>  (32) 
-0

>  <r_i_glide_rewards>  (32) 
-2.07743791304929

>  <r_i_glide_evdw>  (32) 
-41.0047187805176

>  <r_i_glide_ecoul>  (32) 
-4.95708465576172

>  <r_i_glide_erotb>  (32) 
0.264089164149821

>  <r_i_glide_esite>  (32) 
-0.0313797861967942

>  <r_i_glide_emodel>  (32) 
-64.3095822118017

>  <r_i_glide_energy>  (32) 
-45.9618034362793

>  <r_i_glide_einternal>  (32) 
2.0290150642395

>  <i_i_glide_confnum>  (32) 
76

>  <i_i_glide_posenum>  (32) 
150

>  <r_i_glide_eff_state_penalty>  (32) 
0

$$$$
BDB50297909-8-0000
     RDKit          3D

 56 58  0  0  1  0  0  0  0  0999 V2000
   39.4297   38.6566  101.0614 C   0  0  0  0  0  0  0  0  0  0  0  0
   38.4056   38.8114  101.9956 C   0  0  0  0  0  0  0  0  0  0  0  0
   37.9539   37.7089  102.7227 C   0  0  0  0  0  0  0  0  0  0  0  0
   38.5155   36.4497  102.5040 C   0  0  0  0  0  0  0  0  0  0  0  0
   39.5248   36.2888  101.5512 C   0  0  0  0  0  0  0  0  0  0  0  0
   39.9959   37.3998  100.8505 C   0  0  0  0  0  0  0  0  0  0  0  0
   40.2074   34.6694  101.2215 S   0  0  2  0  0  0  0  0  0  0  0  0
   39.3139   34.0645   99.8357 N   0  0  0  0  0  0  0  0  0  0  0  0
   39.8543   33.8120  102.3582 O   0  0  0  0  0  0  0  0  0  0  0  0
   41.6052   34.8505  100.8146 O   0  0  0  0  0  0  0  0  0  0  0  0
   39.7207   34.3622   98.4446 C   0  0  0  0  0  0  0  0  0  0  0  0
   38.5837   34.3863   97.4199 C   0  0  0  0  0  0  0  0  0  0  0  0
   37.2611   34.0638   97.7501 C   0  0  0  0  0  0  0  0  0  0  0  0
   36.2448   34.1813   96.8053 C   0  0  0  0  0  0  0  0  0  0  0  0
   36.5513   34.5930   95.5061 C   0  0  0  0  0  0  0  0  0  0  0  0
   37.8738   34.8689   95.1588 C   0  0  0  0  0  0  0  0  0  0  0  0
   38.8857   34.7483   96.1063 C   0  0  0  0  0  0  0  0  0  0  0  0
   35.4730   34.7310   94.4660 C   0  0  0  0  0  0  0  0  0  0  0  0
   35.0606   35.8631   94.2007 O   0  0  0  0  0  0  0  0  0  0  0  0
   35.0651   33.6127   93.7988 N   0  0  0  0  0  0  0  0  0  0  0  0
   39.9966   40.0139  100.1627 Cl  0  0  0  0  0  0  0  0  0  0  0  0
   34.2629   33.7384   92.5500 C   0  0  1  0  0  0  0  0  0  0  0  0
   35.0739   34.3098   91.3566 C   0  0  0  0  0  0  0  0  0  0  0  0
   36.2073   33.4181   90.8120 C   0  0  0  0  0  0  0  0  0  0  0  0
   33.3538   32.5339   92.1782 C   0  0  0  0  0  0  0  0  0  0  0  0
   35.7951   32.3464   89.7834 C   0  0  0  0  0  0  0  0  0  0  0  0
   33.9884   31.3548   91.4035 C   0  0  0  0  0  0  0  0  0  0  0  0
   34.4127   31.6837   89.9592 C   0  0  0  0  0  0  0  0  0  0  0  0
   35.4784   32.2586   94.2007 C   0  0  0  0  0  0  0  0  0  0  0  0
   37.9667   39.7849  102.1610 H   0  0  0  0  0  0  0  0  0  0  0  0
   37.1662   37.8289  103.4518 H   0  0  0  0  0  0  0  0  0  0  0  0
   38.1545   35.6011  103.0675 H   0  0  0  0  0  0  0  0  0  0  0  0
   40.8080   37.2910  100.1520 H   0  0  0  0  0  0  0  0  0  0  0  0
   38.6669   33.2900   99.9946 H   0  0  0  0  0  0  0  0  0  0  0  0
   40.3884   33.5566   98.1517 H   0  0  0  0  0  0  0  0  0  0  0  0
   40.3339   35.2626   98.4237 H   0  0  0  0  0  0  0  0  0  0  0  0
   37.0031   33.7228   98.7391 H   0  0  0  0  0  0  0  0  0  0  0  0
   35.2271   33.9486   97.0883 H   0  0  0  0  0  0  0  0  0  0  0  0
   38.1176   35.1795   94.1534 H   0  0  0  0  0  0  0  0  0  0  0  0
   39.9042   34.9674   95.8227 H   0  0  0  0  0  0  0  0  0  0  0  0
   33.5355   34.5167   92.7933 H   0  0  0  0  0  0  0  0  0  0  0  0
   35.5017   35.2651   91.6580 H   0  0  0  0  0  0  0  0  0  0  0  0
   34.3872   34.5652   90.5516 H   0  0  0  0  0  0  0  0  0  0  0  0
   36.7306   32.9445   91.6421 H   0  0  0  0  0  0  0  0  0  0  0  0
   36.9593   34.0564   90.3445 H   0  0  0  0  0  0  0  0  0  0  0  0
   32.5344   32.9172   91.5675 H   0  0  0  0  0  0  0  0  0  0  0  0
   32.8537   32.1622   93.0741 H   0  0  0  0  0  0  0  0  0  0  0  0
   36.5627   31.5698   89.7769 H   0  0  0  0  0  0  0  0  0  0  0  0
   35.8285   32.7884   88.7852 H   0  0  0  0  0  0  0  0  0  0  0  0
   34.8216   30.9125   91.9468 H   0  0  0  0  0  0  0  0  0  0  0  0
   33.2409   30.5662   91.3557 H   0  0  0  0  0  0  0  0  0  0  0  0
   34.4103   30.7617   89.3750 H   0  0  0  0  0  0  0  0  0  0  0  0
   33.6489   32.3106   89.4958 H   0  0  0  0  0  0  0  0  0  0  0  0
   36.0381   32.2097   95.1329 H   0  0  0  0  0  0  0  0  0  0  0  0
   34.5991   31.6337   94.3406 H   0  0  0  0  0  0  0  0  0  0  0  0
   36.1086   31.8108   93.4359 H   0  0  0  0  0  0  0  0  0  0  0  0
  1 21  1  0
  1  6  2  0
  1  2  1  0
  2  3  2  0
  2 30  1  0
  3  4  1  0
  3 31  1  0
  4  5  2  0
  4 32  1  0
  5  7  1  0
  5  6  1  0
  6 33  1  0
  7  8  1  6
  7  9  2  0
  7 10  2  0
  8 11  1  0
  8 34  1  0
 11 12  1  0
 11 35  1  0
 11 36  1  0
 12 17  2  0
 12 13  1  0
 13 14  2  0
 13 37  1  0
 14 15  1  0
 14 38  1  0
 15 16  2  0
 15 18  1  0
 16 17  1  0
 16 39  1  0
 17 40  1  0
 18 19  2  0
 18 20  1  0
 20 22  1  0
 20 29  1  0
 22 23  1  0
 22 25  1  0
 22 41  1  1
 23 24  1  0
 23 42  1  0
 23 43  1  0
 24 26  1  0
 24 44  1  0
 24 45  1  0
 25 27  1  0
 25 46  1  0
 25 47  1  0
 26 28  1  0
 26 48  1  0
 26 49  1  0
 27 28  1  0
 27 50  1  0
 27 51  1  0
 28 52  1  0
 28 53  1  0
 29 54  1  0
 29 55  1  0
 29 56  1  0
M  END
>  <Name>  (33) 
BDB50297909

>  <Target>  (33) 
11-beta-Hydroxysteroid Dehydrogenase 1 (11-beta-HSD1)

>  <IC50_in_nM>  (33) 
 638

>  <Kd_from_ITC>  (33) 
false

>  <Uniprot_ID>  (33) 
P28845

>  <source_organism>  (33) 
Homo sapiens

>  <SourceTag>  (33) 
11betaHSD1

>  <s_i_glide_gridfile>  (33) 
11betahsd1_glide-grid

>  <i_i_glide_lignum>  (33) 
9

>  <i_i_glide_rotatable_bonds>  (33) 
7

>  <r_i_docking_score>  (33) 
-7.07362401110055

>  <r_i_glide_ligand_efficiency>  (33) 
-0.243918069348295

>  <r_i_glide_ligand_efficiency_sa>  (33) 
-0.74939358770643

>  <r_i_glide_ligand_efficiency_ln>  (33) 
-1.61968052691371

>  <r_i_glide_gscore>  (33) 
-7.07362401110055

>  <r_i_glide_lipo>  (33) 
-4.04611745897998

>  <r_i_glide_hbond>  (33) 
0

>  <r_i_glide_metal>  (33) 
-0

>  <r_i_glide_rewards>  (33) 
-1.9201396922825

>  <r_i_glide_evdw>  (33) 
-36.1955642700195

>  <r_i_glide_ecoul>  (33) 
0.471414089202881

>  <r_i_glide_erotb>  (33) 
0.631699240282471

>  <r_i_glide_esite>  (33) 
0

>  <r_i_glide_emodel>  (33) 
-45.9496561898986

>  <r_i_glide_energy>  (33) 
-35.7241501808167

>  <r_i_glide_einternal>  (33) 
11.7690954208374

>  <i_i_glide_confnum>  (33) 
423

>  <i_i_glide_posenum>  (33) 
354

>  <r_i_glide_eff_state_penalty>  (33) 
0

$$$$
BDB50306416-12-0000
     RDKit          3D

 59 64  0  0  1  0  0  0  0  0999 V2000
   34.6204   35.7512   96.0310 C   0  0  1  0  0  0  0  0  0  0  0  0
   35.1021   35.0693   97.3261 C   0  0  0  0  0  0  0  0  0  0  0  0
   35.9120   36.1581   95.2907 C   0  0  0  0  0  0  0  0  0  0  0  0
   35.3550   30.2426   89.9802 C   0  0  0  0  0  0  0  0  0  0  0  0
   35.5422   30.8496   91.3891 C   0  0  1  0  0  0  0  0  0  0  0  0
   34.4770   31.1477   89.0913 C   0  0  2  0  0  0  0  0  0  0  0  0
   36.2034   32.2480   91.2371 C   0  0  0  0  0  0  0  0  0  0  0  0
   35.1384   32.5423   89.0162 C   0  0  0  0  0  0  0  0  0  0  0  0
   35.3232   33.2266   90.3961 C   0  0  1  0  0  0  0  0  0  0  0  0
   33.1110   31.3250   89.7865 C   0  0  0  0  0  0  0  0  0  0  0  0
   33.2209   31.9701   91.1978 C   0  0  1  0  0  0  0  0  0  0  0  0
   34.1528   31.0395   92.0357 C   0  0  0  0  0  0  0  0  0  0  0  0
   33.9322   33.3539   91.0942 C   0  0  1  0  0  0  0  0  0  0  0  0
   34.0508   33.9405   92.4368 N   0  0  0  0  0  0  0  0  0  0  0  0
   33.7154   35.2100   92.7029 C   0  0  0  0  0  0  0  0  0  0  0  0
   33.3154   35.4637   93.9722 N   0  0  0  0  0  0  0  0  0  0  0  0
   33.7154   36.0638   91.8171 O   0  0  0  0  0  0  0  0  0  0  0  0
   33.7929   34.7471   95.1775 C   0  0  0  0  0  0  0  0  0  0  0  0
   33.7076   36.9491   96.3852 C   0  0  0  0  0  0  0  0  0  0  0  0
   33.2636   37.6638   95.1124 C   0  0  0  0  0  0  0  0  0  0  0  0
   32.5154   36.6698   94.2349 C   0  0  0  0  0  0  0  0  0  0  0  0
   36.9574   35.2399   95.8532 C   0  0  0  0  0  0  0  0  0  0  0  0
   36.5440   34.7142   97.0698 C   0  0  0  0  0  0  0  0  0  0  0  0
   37.4724   34.0638   97.8847 C   0  0  0  0  0  0  0  0  0  0  0  0
   38.7736   33.8408   97.4402 C   0  0  0  0  0  0  0  0  0  0  0  0
   39.1416   34.2754   96.1806 C   0  0  0  0  0  0  0  0  0  0  0  0
   38.2565   35.0262   95.4274 C   0  0  0  0  0  0  0  0  0  0  0  0
   35.0511   35.7745   98.1523 H   0  0  0  0  0  0  0  0  0  0  0  0
   34.4854   34.2116   97.5998 H   0  0  0  0  0  0  0  0  0  0  0  0
   35.8560   36.1349   94.2039 H   0  0  0  0  0  0  0  0  0  0  0  0
   36.1900   37.1834   95.5382 H   0  0  0  0  0  0  0  0  0  0  0  0
   34.9061   29.2513   90.0588 H   0  0  0  0  0  0  0  0  0  0  0  0
   36.3269   30.0830   89.5097 H   0  0  0  0  0  0  0  0  0  0  0  0
   36.1154   30.1699   92.0102 H   0  0  0  0  0  0  0  0  0  0  0  0
   34.3580   30.7185   88.0954 H   0  0  0  0  0  0  0  0  0  0  0  0
   36.4111   32.6704   92.2214 H   0  0  0  0  0  0  0  0  0  0  0  0
   37.1848   32.1409   90.7717 H   0  0  0  0  0  0  0  0  0  0  0  0
   36.1154   32.4636   88.5490 H   0  0  0  0  0  0  0  0  0  0  0  0
   34.5582   33.1928   88.3595 H   0  0  0  0  0  0  0  0  0  0  0  0
   35.8064   34.1990   90.2915 H   0  0  0  0  0  0  0  0  0  0  0  0
   32.4592   31.9358   89.1598 H   0  0  0  0  0  0  0  0  0  0  0  0
   32.6078   30.3595   89.8584 H   0  0  0  0  0  0  0  0  0  0  0  0
   32.2387   32.0638   91.6633 H   0  0  0  0  0  0  0  0  0  0  0  0
   33.7154   30.0640   92.1901 H   0  0  0  0  0  0  0  0  0  0  0  0
   34.2706   31.4224   93.0502 H   0  0  0  0  0  0  0  0  0  0  0  0
   33.2954   33.9908   90.4728 H   0  0  0  0  0  0  0  0  0  0  0  0
   34.2525   33.3069   93.1942 H   0  0  0  0  0  0  0  0  0  0  0  0
   32.8952   34.4638   95.7275 H   0  0  0  0  0  0  0  0  0  0  0  0
   34.3259   33.8208   94.9604 H   0  0  0  0  0  0  0  0  0  0  0  0
   34.2409   37.6638   97.0063 H   0  0  0  0  0  0  0  0  0  0  0  0
   32.8497   36.6263   96.9787 H   0  0  0  0  0  0  0  0  0  0  0  0
   34.0952   38.1203   94.5737 H   0  0  0  0  0  0  0  0  0  0  0  0
   32.5584   38.4614   95.3436 H   0  0  0  0  0  0  0  0  0  0  0  0
   32.1158   37.1443   93.3523 H   0  0  0  0  0  0  0  0  0  0  0  0
   31.6614   36.3061   94.7927 H   0  0  0  0  0  0  0  0  0  0  0  0
   37.2134   33.6638   98.8458 H   0  0  0  0  0  0  0  0  0  0  0  0
   39.4841   33.3049   98.0518 H   0  0  0  0  0  0  0  0  0  0  0  0
   40.1154   34.0638   95.7976 H   0  0  0  0  0  0  0  0  0  0  0  0
   38.6150   35.4867   94.5523 H   0  0  0  0  0  0  0  0  0  0  0  0
  1  2  1  1
  1  3  1  0
  1 18  1  0
  1 19  1  0
  2 23  1  0
  2 28  1  0
  2 29  1  0
  3 22  1  0
  3 30  1  0
  3 31  1  0
  4  5  1  0
  4  6  1  0
  4 32  1  0
  4 33  1  0
  5  7  1  0
  5 12  1  0
  5 34  1  1
  6  8  1  0
  6 10  1  0
  6 35  1  6
  7  9  1  0
  7 36  1  0
  7 37  1  0
  8  9  1  0
  8 38  1  0
  8 39  1  0
  9 13  1  0
  9 40  1  6
 10 11  1  0
 10 41  1  0
 10 42  1  0
 11 13  1  0
 11 12  1  0
 11 43  1  1
 12 44  1  0
 12 45  1  0
 13 14  1  0
 13 46  1  6
 14 15  1  0
 14 47  1  0
 15 16  1  0
 15 17  2  0
 16 18  1  0
 16 21  1  0
 18 48  1  0
 18 49  1  0
 19 20  1  0
 19 50  1  0
 19 51  1  0
 20 21  1  0
 20 52  1  0
 20 53  1  0
 21 54  1  0
 21 55  1  0
 22 23  2  0
 22 27  1  0
 23 24  1  0
 24 25  2  0
 24 56  1  0
 25 26  1  0
 25 57  1  0
 26 27  2  0
 26 58  1  0
 27 59  1  0
M  END
>  <Name>  (34) 
BDB50306416

>  <Target>  (34) 
11-beta-Hydroxysteroid Dehydrogenase 1 (11-beta-HSD1)

>  <IC50_in_nM>  (34) 
 0.7

>  <Kd_from_ITC>  (34) 
false

>  <Uniprot_ID>  (34) 
P28845

>  <source_organism>  (34) 
Homo sapiens

>  <SourceTag>  (34) 
11betaHSD1

>  <s_i_glide_gridfile>  (34) 
11betahsd1_glide-grid

>  <i_i_glide_lignum>  (34) 
13

>  <i_i_glide_rotatable_bonds>  (34) 
3

>  <r_i_docking_score>  (34) 
-10.9371267844432

>  <r_i_glide_ligand_efficiency>  (34) 
-0.405078769794194

>  <r_i_glide_ligand_efficiency_sa>  (34) 
-1.21523630804751

>  <r_i_glide_ligand_efficiency_ln>  (34) 
-2.54598280279115

>  <r_i_glide_gscore>  (34) 
-10.9371267844432

>  <r_i_glide_lipo>  (34) 
-5.8989888711524

>  <r_i_glide_hbond>  (34) 
-0.243894037620632

>  <r_i_glide_metal>  (34) 
-0

>  <r_i_glide_rewards>  (34) 
-2.36605515426019

>  <r_i_glide_evdw>  (34) 
-37.5436248779297

>  <r_i_glide_ecoul>  (34) 
-6.56714296340942

>  <r_i_glide_erotb>  (34) 
0.434063966997885

>  <r_i_glide_esite>  (34) 
0

>  <r_i_glide_emodel>  (34) 
-55.7431809121348

>  <r_i_glide_energy>  (34) 
-44.1107678413391

>  <r_i_glide_einternal>  (34) 
3.16392993927002

>  <i_i_glide_confnum>  (34) 
10

>  <i_i_glide_posenum>  (34) 
1

>  <r_i_glide_eff_state_penalty>  (34) 
0

$$$$
BDB50309943-7-0000
     RDKit          3D

 56 60  0  0  1  0  0  0  0  0999 V2000
   36.8764   33.8155   89.9073 O   0  0  0  0  0  0  0  0  0  0  0  0
   36.5978   32.8639   90.9828 S   0  0  2  0  0  0  0  0  0  0  0  0
   37.7125   32.0638   91.4953 O   0  0  0  0  0  0  0  0  0  0  0  0
   33.4069   30.0635   89.3514 C   0  0  0  0  0  0  0  0  0  0  0  0
   34.7402   29.6608   89.3556 C   0  0  0  0  0  0  0  0  0  0  0  0
   35.7124   30.5022   89.8899 C   0  0  0  0  0  0  0  0  0  0  0  0
   33.0424   31.2890   89.8794 C   0  0  0  0  0  0  0  0  0  0  0  0
   34.0056   32.1627   90.4064 C   0  0  0  0  0  0  0  0  0  0  0  0
   35.3438   31.7490   90.4022 C   0  0  0  0  0  0  0  0  0  0  0  0
   35.6608   33.6905   92.2831 N   0  0  0  0  0  0  0  0  0  0  0  0
   34.3304   34.1245   91.9788 C   0  0  0  0  0  0  0  0  0  0  0  0
   33.6010   33.4445   91.0429 C   0  0  0  0  0  0  0  0  0  0  0  0
   32.5157   33.9119   90.5266 O   0  0  0  0  0  0  0  0  0  0  0  0
   33.8186   35.4035   92.5297 C   0  0  0  0  0  0  0  0  0  0  0  0
   33.7154   36.3452   91.7528 O   0  0  0  0  0  0  0  0  0  0  0  0
   33.5013   35.5974   93.9876 C   0  0  0  0  0  0  0  0  0  0  0  0
   33.6631   34.5750   94.9255 C   0  0  0  0  0  0  0  0  0  0  0  0
   33.5899   34.8638   96.2868 C   0  0  0  0  0  0  0  0  0  0  0  0
   33.2879   36.1404   96.7285 C   0  0  0  0  0  0  0  0  0  0  0  0
   33.0103   37.1325   95.8043 C   0  0  0  0  0  0  0  0  0  0  0  0
   33.1140   36.8642   94.4452 C   0  0  0  0  0  0  0  0  0  0  0  0
   36.4527   34.2644   93.4293 C   0  0  0  0  0  0  0  0  0  0  0  0
   36.8685   33.2289   94.4794 C   0  0  0  0  0  0  0  0  0  0  0  0
   37.6106   33.7279   95.6451 C   0  0  0  0  0  0  0  0  0  0  0  0
   36.5035   32.0638   94.4007 O   0  0  0  0  0  0  0  0  0  0  0  0
   38.8595   33.2681   96.0714 C   0  0  0  0  0  0  0  0  0  0  0  0
   39.3131   33.6405   97.3417 C   0  0  0  0  0  0  0  0  0  0  0  0
   38.5582   34.4212   98.2103 C   0  0  0  0  0  0  0  0  0  0  0  0
   37.3235   34.8638   97.7154 C   0  0  0  0  0  0  0  0  0  0  0  0
   36.8898   34.5793   96.4502 C   0  0  0  0  0  0  0  0  0  0  0  0
   39.1217   34.7505   99.5724 C   0  0  0  0  0  0  0  0  0  0  0  0
   38.9154   35.9916  100.1960 C   0  0  0  0  0  0  0  0  0  0  0  0
   39.4722   36.2853  101.4376 C   0  0  0  0  0  0  0  0  0  0  0  0
   40.2534   35.3358  102.0850 C   0  0  0  0  0  0  0  0  0  0  0  0
   40.4746   34.0956  101.4991 C   0  0  0  0  0  0  0  0  0  0  0  0
   39.9143   33.8108  100.2573 C   0  0  0  0  0  0  0  0  0  0  0  0
   32.6319   29.4294   88.9573 H   0  0  0  0  0  0  0  0  0  0  0  0
   35.0205   28.6995   88.9500 H   0  0  0  0  0  0  0  0  0  0  0  0
   36.7495   30.1967   89.8847 H   0  0  0  0  0  0  0  0  0  0  0  0
   31.9952   31.5542   89.8849 H   0  0  0  0  0  0  0  0  0  0  0  0
   33.9214   33.5729   94.6129 H   0  0  0  0  0  0  0  0  0  0  0  0
   33.7698   34.0800   97.0092 H   0  0  0  0  0  0  0  0  0  0  0  0
   33.2252   36.3466   97.7871 H   0  0  0  0  0  0  0  0  0  0  0  0
   32.7179   38.1040   96.1505 H   0  0  0  0  0  0  0  0  0  0  0  0
   32.9157   37.6637   93.7526 H   0  0  0  0  0  0  0  0  0  0  0  0
   35.8538   34.9746   93.9741 H   0  0  0  0  0  0  0  0  0  0  0  0
   37.2589   34.9132   93.1033 H   0  0  0  0  0  0  0  0  0  0  0  0
   39.4516   32.6020   95.4611 H   0  0  0  0  0  0  0  0  0  0  0  0
   40.2190   33.2654   97.7499 H   0  0  0  0  0  0  0  0  0  0  0  0
   36.6999   35.5989   98.1523 H   0  0  0  0  0  0  0  0  0  0  0  0
   35.9783   35.0371   96.1238 H   0  0  0  0  0  0  0  0  0  0  0  0
   38.2968   36.7521   99.7523 H   0  0  0  0  0  0  0  0  0  0  0  0
   39.2936   37.2455  101.8989 H   0  0  0  0  0  0  0  0  0  0  0  0
   40.6861   35.5610  103.0492 H   0  0  0  0  0  0  0  0  0  0  0  0
   41.0784   33.3558  102.0047 H   0  0  0  0  0  0  0  0  0  0  0  0
   40.1106   32.8361   99.8385 H   0  0  0  0  0  0  0  0  0  0  0  0
  1  2  2  0
  2  3  2  0
  2  9  1  0
  2 10  1  1
  4  5  2  0
  4  7  1  0
  4 37  1  0
  5  6  1  0
  5 38  1  0
  6  9  2  0
  6 39  1  0
  7  8  2  0
  7 40  1  0
  8 12  1  0
  8  9  1  0
 10 22  1  0
 10 11  1  0
 11 12  2  0
 11 14  1  0
 12 13  1  0
 14 15  2  0
 14 16  1  0
 16 21  2  0
 16 17  1  0
 17 18  2  0
 17 41  1  0
 18 19  1  0
 18 42  1  0
 19 20  2  0
 19 43  1  0
 20 21  1  0
 20 44  1  0
 21 45  1  0
 22 23  1  0
 22 46  1  0
 22 47  1  0
 23 24  1  0
 23 25  2  0
 24 26  2  0
 24 30  1  0
 26 27  1  0
 26 48  1  0
 27 28  2  0
 27 49  1  0
 28 29  1  0
 28 31  1  0
 29 30  2  0
 29 50  1  0
 30 51  1  0
 31 32  2  0
 31 36  1  0
 32 33  1  0
 32 52  1  0
 33 34  2  0
 33 53  1  0
 34 35  1  0
 34 54  1  0
 35 36  2  0
 35 55  1  0
 36 56  1  0
M  CHG  1  13  -1
M  END
>  <Name>  (35) 
BDB50309943

>  <Target>  (35) 
11-beta-Hydroxysteroid Dehydrogenase 1 (11-beta-HSD1)

>  <IC50_in_nM>  (35) 
 28

>  <Kd_from_ITC>  (35) 
false

>  <Uniprot_ID>  (35) 
P28845

>  <source_organism>  (35) 
Homo sapiens

>  <SourceTag>  (35) 
11betaHSD1

>  <s_i_glide_gridfile>  (35) 
11betahsd1_glide-grid

>  <i_i_glide_lignum>  (35) 
8

>  <i_i_glide_rotatable_bonds>  (35) 
6

>  <r_i_docking_score>  (35) 
-10.0213032567512

>  <r_i_glide_ligand_efficiency>  (35) 
-0.278369534909757

>  <r_i_glide_ligand_efficiency_sa>  (35) 
-0.919155951482712

>  <r_i_glide_ligand_efficiency_ln>  (35) 
-2.18637762629749

>  <r_i_glide_gscore>  (35) 
-10.0213032567512

>  <r_i_glide_lipo>  (35) 
-5.93314522354823

>  <r_i_glide_hbond>  (35) 
-0.342739629315577

>  <r_i_glide_metal>  (35) 
-0

>  <r_i_glide_rewards>  (35) 
-2.23270725619662

>  <r_i_glide_evdw>  (35) 
-19.7126960754395

>  <r_i_glide_ecoul>  (35) 
-6.84692049026489

>  <r_i_glide_erotb>  (35) 
0.499961729620897

>  <r_i_glide_esite>  (35) 
0

>  <r_i_glide_emodel>  (35) 
-34.4520771298603

>  <r_i_glide_energy>  (35) 
-26.5596165657043

>  <r_i_glide_einternal>  (35) 
11.7171936035156

>  <i_i_glide_confnum>  (35) 
89

>  <i_i_glide_posenum>  (35) 
337

>  <r_i_glide_eff_state_penalty>  (35) 
0

$$$$
BDB50313286-10-0000
     RDKit          3D

 48 50  0  0  1  0  0  0  0  0999 V2000
   32.5377   30.3298   89.3172 C   0  0  0  0  0  0  0  0  0  0  0  0
   32.1720   30.8694   88.3317 N   0  0  0  0  0  0  0  0  0  0  0  0
   33.8881   30.7847   88.6588 C   0  0  1  0  0  0  0  0  0  0  0  0
   33.6943   31.1871   88.1743 C   0  0  2  0  0  0  0  0  0  0  0  0
   34.3129   30.0707   87.3978 C   0  0  0  0  0  0  0  0  0  0  0  0
   34.7276   32.4807   88.3666 C   0  0  0  0  0  0  0  0  0  0  0  0
   35.1225   31.6647   88.9845 N   0  0  0  0  0  0  0  0  0  0  0  0
   31.5215   32.2200   88.6866 C   0  0  0  0  0  0  0  0  0  0  0  0
   35.0650   33.1220   91.6237 C   0  0  0  0  0  0  0  0  0  0  0  0
   33.8857   32.7772   92.2881 C   0  0  0  0  0  0  0  0  0  0  0  0
   33.2801   33.6950   93.1485 C   0  0  0  0  0  0  0  0  0  0  0  0
   33.8448   34.9573   93.3604 C   0  0  0  0  0  0  0  0  0  0  0  0
   35.0249   35.2903   92.6907 C   0  0  0  0  0  0  0  0  0  0  0  0
   35.6432   34.3774   91.8394 C   0  0  0  0  0  0  0  0  0  0  0  0
   35.9087   31.9193   90.5628 S   0  0  2  0  0  0  0  0  0  0  0  0
   37.1364   32.5341   90.0700 O   0  0  0  0  0  0  0  0  0  0  0  0
   36.0375   30.6629   91.3064 O   0  0  0  0  0  0  0  0  0  0  0  0
   33.1569   35.9661   94.3011 C   0  0  0  0  0  0  0  0  0  0  0  0
   33.9448   36.4281   95.5736 C   0  0  1  0  0  0  0  0  0  0  0  0
   34.4709   35.2034   96.3208 C   0  0  0  0  0  0  0  0  0  0  0  0
   35.1449   37.3214   95.2153 C   0  0  0  0  0  0  0  0  0  0  0  0
   33.0138   37.1971   96.5387 C   0  0  0  0  0  0  0  0  0  0  0  0
   32.3869   29.2308   89.2971 H   0  0  0  0  0  0  0  0  0  0  0  0
   32.6103   30.7801   90.3113 H   0  0  0  0  0  0  0  0  0  0  0  0
   34.3843   30.0337   89.6902 H   0  0  0  0  0  0  0  0  0  0  0  0
   33.2128   32.1096   87.3519 H   0  0  0  0  0  0  0  0  0  0  0  0
   33.6946   29.2572   87.0559 H   0  0  0  0  0  0  0  0  0  0  0  0
   35.3153   30.1975   86.9952 H   0  0  0  0  0  0  0  0  0  0  0  0
   35.3586   32.6713   87.4873 H   0  0  0  0  0  0  0  0  0  0  0  0
   34.0066   33.2705   88.6327 H   0  0  0  0  0  0  0  0  0  0  0  0
   32.2427   32.8540   89.2440 H   0  0  0  0  0  0  0  0  0  0  0  0
   30.7150   31.9813   89.3161 H   0  0  0  0  0  0  0  0  0  0  0  0
   31.2519   32.8300   87.8036 H   0  0  0  0  0  0  0  0  0  0  0  0
   33.4458   31.8021   92.1380 H   0  0  0  0  0  0  0  0  0  0  0  0
   32.3617   33.4302   93.6490 H   0  0  0  0  0  0  0  0  0  0  0  0
   35.4667   36.2628   92.8177 H   0  0  0  0  0  0  0  0  0  0  0  0
   36.5662   34.6503   91.3431 H   0  0  0  0  0  0  0  0  0  0  0  0
   32.2112   35.5259   94.6252 H   0  0  0  0  0  0  0  0  0  0  0  0
   32.8820   36.8382   93.7083 H   0  0  0  0  0  0  0  0  0  0  0  0
   35.1535   34.6368   95.6837 H   0  0  0  0  0  0  0  0  0  0  0  0
   33.6462   34.5556   96.6232 H   0  0  0  0  0  0  0  0  0  0  0  0
   35.0146   35.5154   97.2133 H   0  0  0  0  0  0  0  0  0  0  0  0
   34.8260   38.1934   94.6431 H   0  0  0  0  0  0  0  0  0  0  0  0
   35.8635   36.7576   94.6321 H   0  0  0  0  0  0  0  0  0  0  0  0
   35.6823   37.6544   96.1020 H   0  0  0  0  0  0  0  0  0  0  0  0
   32.1985   36.5462   96.8652 H   0  0  0  0  0  0  0  0  0  0  0  0
   32.5750   38.0636   96.0425 H   0  0  0  0  0  0  0  0  0  0  0  0
   33.5511   37.5410   97.4323 H   0  0  0  0  0  0  0  0  0  0  0  0
  1  2  1  0
  1  4  1  0
  1 23  1  0
  1 24  1  0
  2  8  1  0
  2  3  1  0
  3  5  1  0
  3  6  1  0
  3 25  1  1
  4  7  1  0
  4  5  1  0
  4 26  1  6
  5 27  1  0
  5 28  1  0
  6  7  1  0
  6 29  1  0
  6 30  1  0
 15  7  1  6
  8 31  1  0
  8 32  1  0
  8 33  1  0
  9 14  2  0
  9 15  1  0
  9 10  1  0
 10 11  2  0
 10 34  1  0
 11 12  1  0
 11 35  1  0
 12 13  2  0
 12 18  1  0
 13 14  1  0
 13 36  1  0
 14 37  1  0
 15 16  2  0
 15 17  2  0
 19 18  1  6
 18 38  1  0
 18 39  1  0
 19 20  1  0
 19 21  1  0
 19 22  1  0
 20 40  1  0
 20 41  1  0
 20 42  1  0
 21 43  1  0
 21 44  1  0
 21 45  1  0
 22 46  1  0
 22 47  1  0
 22 48  1  0
M  END
>  <Name>  (36) 
BDB50313286

>  <Target>  (36) 
11-beta-Hydroxysteroid Dehydrogenase 1 (11-beta-HSD1)

>  <IC50_in_nM>  (36) 
 0.33

>  <Kd_from_ITC>  (36) 
false

>  <Uniprot_ID>  (36) 
P28845

>  <source_organism>  (36) 
Homo sapiens

>  <SourceTag>  (36) 
11betaHSD1

>  <s_i_glide_gridfile>  (36) 
11betahsd1_glide-grid

>  <i_i_glide_lignum>  (36) 
11

>  <i_i_glide_rotatable_bonds>  (36) 
4

>  <r_i_docking_score>  (36) 
-6.9271002325608

>  <r_i_glide_ligand_efficiency>  (36) 
-0.314868192389127

>  <r_i_glide_ligand_efficiency_sa>  (36) 
-0.882273058137654

>  <r_i_glide_ligand_efficiency_ln>  (36) 
-1.69323596895808

>  <r_i_glide_gscore>  (36) 
-6.9271002325608

>  <r_i_glide_lipo>  (36) 
-4.50043158440698

>  <r_i_glide_hbond>  (36) 
0

>  <r_i_glide_metal>  (36) 
-0

>  <r_i_glide_rewards>  (36) 
-1.91570850403538

>  <r_i_glide_evdw>  (36) 
-22.8094348907471

>  <r_i_glide_ecoul>  (36) 
0.599920690059662

>  <r_i_glide_erotb>  (36) 
0.539523496909967

>  <r_i_glide_esite>  (36) 
0

>  <r_i_glide_emodel>  (36) 
-35.030173761012

>  <r_i_glide_energy>  (36) 
-22.2095142006874

>  <r_i_glide_einternal>  (36) 
0.951564073562622

>  <i_i_glide_confnum>  (36) 
1

>  <i_i_glide_posenum>  (36) 
218

>  <r_i_glide_eff_state_penalty>  (36) 
0

$$$$
BDB50317220-9-0000
     RDKit          3D

 56 60  0  0  1  0  0  0  0  0999 V2000
   35.1857   30.6000   90.2469 C   0  0  0  0  0  0  0  0  0  0  0  0
   35.3516   31.1349   91.6886 C   0  0  1  0  0  0  0  0  0  0  0  0
   34.8349   31.7383   89.2618 C   0  0  2  0  0  0  0  0  0  0  0  0
   36.4847   32.2023   91.6679 C   0  0  0  0  0  0  0  0  0  0  0  0
   35.9503   32.8088   89.3253 C   0  0  0  0  0  0  0  0  0  0  0  0
   36.1667   33.4049   90.7287 C   0  0  1  0  0  0  0  0  0  0  0  0
   33.5333   32.4148   89.7464 C   0  0  0  0  0  0  0  0  0  0  0  0
   33.6539   33.0174   91.1751 C   0  0  1  0  0  0  0  0  0  0  0  0
   34.0262   31.8273   92.1094 C   0  0  0  0  0  0  0  0  0  0  0  0
   34.8398   34.0447   91.2059 C   0  0  1  0  0  0  0  0  0  0  0  0
   34.2651   35.6634   92.9538 C   0  0  0  0  0  0  0  0  0  0  0  0
   34.6257   36.2871   94.3233 C   0  0  2  0  0  0  0  0  0  0  0  0
   33.3156   36.0639   92.2838 O   0  0  0  0  0  0  0  0  0  0  0  0
   34.1915   35.4391   95.4238 N   0  0  0  0  0  0  0  0  0  0  0  0
   34.0638   36.2956   96.5970 C   0  0  0  0  0  0  0  0  0  0  0  0
   33.5843   37.6434   96.0747 C   0  0  0  0  0  0  0  0  0  0  0  0
   33.8862   37.6155   94.5824 C   0  0  0  0  0  0  0  0  0  0  0  0
   34.8796   34.1624   95.6231 C   0  0  0  0  0  0  0  0  0  0  0  0
   36.2926   34.2375   96.1834 C   0  0  0  0  0  0  0  0  0  0  0  0
   37.4458   34.4264   95.4054 C   0  0  0  0  0  0  0  0  0  0  0  0
   38.7042   34.4635   96.0259 C   0  0  0  0  0  0  0  0  0  0  0  0
   38.7809   34.2964   97.4139 C   0  0  0  0  0  0  0  0  0  0  0  0
   37.6405   34.0639   98.1534 C   0  0  0  0  0  0  0  0  0  0  0  0
   36.4039   34.0639   97.5501 C   0  0  0  0  0  0  0  0  0  0  0  0
   39.9863   34.3953   98.2106 C   0  0  0  0  0  0  0  0  0  0  0  0
   40.9139   34.4636   98.8915 N   0  0  0  0  0  0  0  0  0  0  0  0
   35.0419   34.6684   92.5086 N   0  0  0  0  0  0  0  0  0  0  0  0
   36.1016   30.0996   89.9270 H   0  0  0  0  0  0  0  0  0  0  0  0
   34.4121   29.8306   90.2203 H   0  0  0  0  0  0  0  0  0  0  0  0
   35.5942   30.3205   92.3731 H   0  0  0  0  0  0  0  0  0  0  0  0
   34.7232   31.3549   88.2464 H   0  0  0  0  0  0  0  0  0  0  0  0
   37.4192   31.7348   91.3522 H   0  0  0  0  0  0  0  0  0  0  0  0
   36.6831   32.5484   92.6827 H   0  0  0  0  0  0  0  0  0  0  0  0
   35.7110   33.6140   88.6299 H   0  0  0  0  0  0  0  0  0  0  0  0
   36.9021   32.4288   88.9695 H   0  0  0  0  0  0  0  0  0  0  0  0
   36.9812   34.1316   90.7201 H   0  0  0  0  0  0  0  0  0  0  0  0
   32.7110   31.6981   89.7164 H   0  0  0  0  0  0  0  0  0  0  0  0
   33.2472   33.2015   89.0460 H   0  0  0  0  0  0  0  0  0  0  0  0
   32.7150   33.4794   91.4845 H   0  0  0  0  0  0  0  0  0  0  0  0
   34.0919   32.1623   93.1438 H   0  0  0  0  0  0  0  0  0  0  0  0
   33.2192   31.0945   92.1100 H   0  0  0  0  0  0  0  0  0  0  0  0
   34.6063   34.8584   90.5258 H   0  0  0  0  0  0  0  0  0  0  0  0
   35.7073   36.4337   94.3463 H   0  0  0  0  0  0  0  0  0  0  0  0
   33.3660   35.8423   97.3028 H   0  0  0  0  0  0  0  0  0  0  0  0
   34.9950   36.3959   97.1534 H   0  0  0  0  0  0  0  0  0  0  0  0
   32.5162   37.7638   96.2550 H   0  0  0  0  0  0  0  0  0  0  0  0
   34.1148   38.4626   96.5522 H   0  0  0  0  0  0  0  0  0  0  0  0
   32.9333   37.6995   94.0580 H   0  0  0  0  0  0  0  0  0  0  0  0
   34.5159   38.4639   94.3179 H   0  0  0  0  0  0  0  0  0  0  0  0
   34.8573   33.5262   94.7428 H   0  0  0  0  0  0  0  0  0  0  0  0
   34.2556   33.6621   96.3580 H   0  0  0  0  0  0  0  0  0  0  0  0
   37.3724   34.5562   94.3367 H   0  0  0  0  0  0  0  0  0  0  0  0
   39.5967   34.6379   95.4390 H   0  0  0  0  0  0  0  0  0  0  0  0
   37.7149   33.9015   99.2194 H   0  0  0  0  0  0  0  0  0  0  0  0
   35.5194   33.9300   98.1521 H   0  0  0  0  0  0  0  0  0  0  0  0
   35.7296   34.2590   93.1209 H   0  0  0  0  0  0  0  0  0  0  0  0
  1  2  1  0
  1  3  1  0
  1 28  1  0
  1 29  1  0
  2  4  1  0
  2  9  1  0
  2 30  1  1
  3  5  1  0
  3  7  1  0
  3 31  1  6
  4  6  1  0
  4 32  1  0
  4 33  1  0
  5  6  1  0
  5 34  1  0
  5 35  1  0
  6 10  1  0
  6 36  1  6
  7  8  1  0
  7 37  1  0
  7 38  1  0
  8 10  1  0
  8  9  1  0
  8 39  1  1
  9 40  1  0
  9 41  1  0
 10 27  1  0
 10 42  1  6
 11 12  1  0
 11 13  2  0
 11 27  1  0
 12 14  1  0
 12 17  1  0
 12 43  1  6
 14 15  1  0
 14 18  1  0
 15 16  1  0
 15 44  1  0
 15 45  1  0
 16 17  1  0
 16 46  1  0
 16 47  1  0
 17 48  1  0
 17 49  1  0
 18 19  1  0
 18 50  1  0
 18 51  1  0
 19 20  2  0
 19 24  1  0
 20 21  1  0
 20 52  1  0
 21 22  2  0
 21 53  1  0
 22 23  1  0
 22 25  1  0
 23 24  2  0
 23 54  1  0
 24 55  1  0
 25 26  3  0
 27 56  1  0
M  END
>  <Name>  (37) 
BDB50317220

>  <Target>  (37) 
11-beta-Hydroxysteroid Dehydrogenase 1 (11-beta-HSD1)

>  <IC50_in_nM>  (37) 
 0.03

>  <Kd_from_ITC>  (37) 
false

>  <Uniprot_ID>  (37) 
P28845

>  <source_organism>  (37) 
Homo sapiens

>  <SourceTag>  (37) 
11betaHSD1

>  <s_i_glide_gridfile>  (37) 
11betahsd1_glide-grid

>  <i_i_glide_lignum>  (37) 
10

>  <i_i_glide_rotatable_bonds>  (37) 
5

>  <r_i_docking_score>  (37) 
-9.82234761767167

>  <r_i_glide_ligand_efficiency>  (37) 
-0.363790652506358

>  <r_i_glide_ligand_efficiency_sa>  (37) 
-1.09137195632008

>  <r_i_glide_ligand_efficiency_ln>  (37) 
-2.28648059133765

>  <r_i_glide_gscore>  (37) 
-9.82234761767167

>  <r_i_glide_lipo>  (37) 
-5.50826949550899

>  <r_i_glide_hbond>  (37) 
-0.0589108222832558

>  <r_i_glide_metal>  (37) 
-0

>  <r_i_glide_rewards>  (37) 
-2.46207017925323

>  <r_i_glide_evdw>  (37) 
-37.9080696105957

>  <r_i_glide_ecoul>  (37) 
-4.16525316238403

>  <r_i_glide_erotb>  (37) 
0.727094334261191

>  <r_i_glide_esite>  (37) 
0

>  <r_i_glide_emodel>  (37) 
-51.6547191259883

>  <r_i_glide_energy>  (37) 
-42.0733227729797

>  <r_i_glide_einternal>  (37) 
25.6458625793457

>  <i_i_glide_confnum>  (37) 
7

>  <i_i_glide_posenum>  (37) 
148

>  <r_i_glide_eff_state_penalty>  (37) 
0

$$$$
BDB50317223-19-0000
     RDKit          3D

 51 55  0  0  1  0  0  0  0  0999 V2000
   37.4651   35.0984   95.0178 N   0  0  0  0  0  0  0  0  0  0  0  0
   38.7248   34.7257   95.3529 C   0  0  0  0  0  0  0  0  0  0  0  0
   39.0544   34.2138   96.6043 C   0  0  0  0  0  0  0  0  0  0  0  0
   38.0385   34.0638   97.5457 C   0  0  0  0  0  0  0  0  0  0  0  0
   36.7318   34.4171   97.2084 C   0  0  0  0  0  0  0  0  0  0  0  0
   36.4750   34.9630   95.9431 C   0  0  0  0  0  0  0  0  0  0  0  0
   35.1884   35.3894   95.5671 N   0  0  0  0  0  0  0  0  0  0  0  0
   34.1909   30.5710   90.5501 C   0  0  0  0  0  0  0  0  0  0  0  0
   33.9131   31.2606   91.9087 C   0  0  1  0  0  0  0  0  0  0  0  0
   35.0892   31.4397   89.6469 C   0  0  2  0  0  0  0  0  0  0  0  0
   35.2663   31.5239   92.5983 C   0  0  0  0  0  0  0  0  0  0  0  0
   36.4089   31.7159   90.3969 C   0  0  0  0  0  0  0  0  0  0  0  0
   36.2070   32.4448   91.7556 C   0  0  1  0  0  0  0  0  0  0  0  0
   34.3889   32.7960   89.4387 C   0  0  0  0  0  0  0  0  0  0  0  0
   34.1137   33.5600   90.7653 C   0  0  1  0  0  0  0  0  0  0  0  0
   33.2265   32.6180   91.6299 C   0  0  0  0  0  0  0  0  0  0  0  0
   35.4637   33.8062   91.5410 C   0  0  1  0  0  0  0  0  0  0  0  0
   34.6931   35.6525   93.0780 C   0  0  0  0  0  0  0  0  0  0  0  0
   34.8834   36.3328   94.4680 C   0  0  1  0  0  0  0  0  0  0  0  0
   34.1093   36.2552   92.1795 O   0  0  0  0  0  0  0  0  0  0  0  0
   34.0471   35.4524   96.4889 C   0  0  0  0  0  0  0  0  0  0  0  0
   32.9176   36.2011   95.7932 C   0  0  0  0  0  0  0  0  0  0  0  0
   33.6711   37.1705   94.9155 C   0  0  0  0  0  0  0  0  0  0  0  0
   35.2948   34.4718   92.8473 N   0  0  0  0  0  0  0  0  0  0  0  0
   39.4849   34.8634   94.5988 H   0  0  0  0  0  0  0  0  0  0  0  0
   40.0744   33.9488   96.8371 H   0  0  0  0  0  0  0  0  0  0  0  0
   38.2591   33.6682   98.5261 H   0  0  0  0  0  0  0  0  0  0  0  0
   35.9447   34.2911   97.9358 H   0  0  0  0  0  0  0  0  0  0  0  0
   34.6607   29.6003   90.7125 H   0  0  0  0  0  0  0  0  0  0  0  0
   33.2490   30.3557   90.0428 H   0  0  0  0  0  0  0  0  0  0  0  0
   33.3152   30.6219   92.5531 H   0  0  0  0  0  0  0  0  0  0  0  0
   35.2793   30.9464   88.6920 H   0  0  0  0  0  0  0  0  0  0  0  0
   35.1030   31.9436   93.5919 H   0  0  0  0  0  0  0  0  0  0  0  0
   35.7154   30.5518   92.7852 H   0  0  0  0  0  0  0  0  0  0  0  0
   36.9426   30.7773   90.5561 H   0  0  0  0  0  0  0  0  0  0  0  0
   37.0703   32.3095   89.7637 H   0  0  0  0  0  0  0  0  0  0  0  0
   37.1632   32.5837   92.2611 H   0  0  0  0  0  0  0  0  0  0  0  0
   34.9988   33.4201   88.7842 H   0  0  0  0  0  0  0  0  0  0  0  0
   33.4541   32.6485   88.8951 H   0  0  0  0  0  0  0  0  0  0  0  0
   33.5769   34.4787   90.5527 H   0  0  0  0  0  0  0  0  0  0  0  0
   32.2737   32.4482   91.1265 H   0  0  0  0  0  0  0  0  0  0  0  0
   32.9618   33.1003   92.5725 H   0  0  0  0  0  0  0  0  0  0  0  0
   36.0939   34.4653   90.9402 H   0  0  0  0  0  0  0  0  0  0  0  0
   35.7308   36.9947   94.2996 H   0  0  0  0  0  0  0  0  0  0  0  0
   34.3200   35.9806   97.4051 H   0  0  0  0  0  0  0  0  0  0  0  0
   33.7390   34.4419   96.7590 H   0  0  0  0  0  0  0  0  0  0  0  0
   32.2708   36.7166   96.5035 H   0  0  0  0  0  0  0  0  0  0  0  0
   32.2951   35.5179   95.2128 H   0  0  0  0  0  0  0  0  0  0  0  0
   34.0053   38.0529   95.4658 H   0  0  0  0  0  0  0  0  0  0  0  0
   33.0422   37.5423   94.1069 H   0  0  0  0  0  0  0  0  0  0  0  0
   35.8409   34.0989   93.6108 H   0  0  0  0  0  0  0  0  0  0  0  0
  1  2  2  0
  1  6  1  0
  2  3  1  0
  2 25  1  0
  3  4  2  0
  3 26  1  0
  4  5  1  0
  4 27  1  0
  5  6  2  0
  5 28  1  0
  6  7  1  0
  7 19  1  0
  7 21  1  0
  8  9  1  0
  8 10  1  0
  8 29  1  0
  8 30  1  0
  9 11  1  0
  9 16  1  0
  9 31  1  1
 10 12  1  0
 10 14  1  0
 10 32  1  6
 11 13  1  0
 11 33  1  0
 11 34  1  0
 12 13  1  0
 12 35  1  0
 12 36  1  0
 13 17  1  0
 13 37  1  1
 14 15  1  0
 14 38  1  0
 14 39  1  0
 15 17  1  0
 15 16  1  0
 15 40  1  6
 16 41  1  0
 16 42  1  0
 17 24  1  0
 17 43  1  6
 18 19  1  0
 18 20  2  0
 18 24  1  0
 19 23  1  0
 19 44  1  6
 21 22  1  0
 21 45  1  0
 21 46  1  0
 22 23  1  0
 22 47  1  0
 22 48  1  0
 23 49  1  0
 23 50  1  0
 24 51  1  0
M  END
>  <Name>  (38) 
BDB50317223

>  <Target>  (38) 
11-beta-Hydroxysteroid Dehydrogenase 1 (11-beta-HSD1)

>  <IC50_in_nM>  (38) 
 5

>  <Kd_from_ITC>  (38) 
false

>  <Uniprot_ID>  (38) 
P28845

>  <source_organism>  (38) 
Homo sapiens

>  <SourceTag>  (38) 
11betaHSD1

>  <s_i_glide_gridfile>  (38) 
11betahsd1_glide-grid

>  <i_i_glide_lignum>  (38) 
20

>  <i_i_glide_rotatable_bonds>  (38) 
4

>  <r_i_docking_score>  (38) 
-10.1857826332708

>  <r_i_glide_ligand_efficiency>  (38) 
-0.424407609719616

>  <r_i_glide_ligand_efficiency_sa>  (38) 
-1.22420338420976

>  <r_i_glide_ligand_efficiency_ln>  (38) 
-2.43792517925087

>  <r_i_glide_gscore>  (38) 
-10.1857826332708

>  <r_i_glide_lipo>  (38) 
-4.98348758562979

>  <r_i_glide_hbond>  (38) 
-0.247548573083951

>  <r_i_glide_metal>  (38) 
-0

>  <r_i_glide_rewards>  (38) 
-2.5230892169907

>  <r_i_glide_evdw>  (38) 
-44.7026863098145

>  <r_i_glide_ecoul>  (38) 
-6.02868604660034

>  <r_i_glide_erotb>  (38) 
0.707779964914431

>  <r_i_glide_esite>  (38) 
0

>  <r_i_glide_emodel>  (38) 
-75.4515260705276

>  <r_i_glide_energy>  (38) 
-50.7313723564148

>  <r_i_glide_einternal>  (38) 
8.59721660614014

>  <i_i_glide_confnum>  (38) 
27

>  <i_i_glide_posenum>  (38) 
27

>  <r_i_glide_eff_state_penalty>  (38) 
0

$$$$
BDB50319660-31-0000
     RDKit          3D

 36 38  0  0  1  0  0  0  0  0999 V2000
   34.5141   31.5126   88.1211 C   0  0  0  0  0  0  0  0  0  0  0  0
   33.8511   30.2261   88.6425 C   0  0  0  0  0  0  0  0  0  0  0  0
   32.7202   30.7651   89.5413 C   0  0  1  0  0  0  0  0  0  0  0  0
   33.3079   31.4416   90.8009 C   0  0  0  0  0  0  0  0  0  0  0  0
   33.9569   32.7373   90.2408 C   0  0  1  0  0  0  0  0  0  0  0  0
   33.6282   32.6193   88.7337 C   0  0  2  0  0  0  0  0  0  0  0  0
   32.2428   31.9691   88.7407 C   0  0  0  0  0  0  0  0  0  0  0  0
   33.8570   34.4380   92.0298 C   0  0  0  0  0  0  0  0  0  0  0  0
   34.0469   33.3770   93.4269 S   0  0  0  0  0  0  0  0  0  0  0  0
   34.5551   34.7973   94.3445 C   0  0  0  0  0  0  0  0  0  0  0  0
   34.5601   35.9513   93.4743 C   0  0  0  0  0  0  0  0  0  0  0  0
   34.1152   35.6549   92.2053 N   0  0  0  0  0  0  0  0  0  0  0  0
   34.9153   37.0755   93.8122 O   0  0  0  0  0  0  0  0  0  0  0  0
   34.9106   34.6960   95.8207 C   0  0  2  0  0  0  0  0  0  0  0  0
   33.9834   35.5557   96.6961 C   0  0  0  0  0  0  0  0  0  0  0  0
   36.3916   35.0145   96.0919 C   0  0  0  0  0  0  0  0  0  0  0  0
   33.4120   33.9644   90.8145 N   0  0  0  0  0  0  0  0  0  0  0  0
   34.5152   31.5378   87.0320 H   0  0  0  0  0  0  0  0  0  0  0  0
   35.5513   31.5968   88.4474 H   0  0  0  0  0  0  0  0  0  0  0  0
   34.5438   29.5776   89.1813 H   0  0  0  0  0  0  0  0  0  0  0  0
   33.4416   29.6625   87.8054 H   0  0  0  0  0  0  0  0  0  0  0  0
   31.9507   30.0237   89.7518 H   0  0  0  0  0  0  0  0  0  0  0  0
   34.0349   30.8051   91.3074 H   0  0  0  0  0  0  0  0  0  0  0  0
   32.5190   31.6646   91.5214 H   0  0  0  0  0  0  0  0  0  0  0  0
   35.0402   32.7133   90.3843 H   0  0  0  0  0  0  0  0  0  0  0  0
   33.6913   33.5635   88.1906 H   0  0  0  0  0  0  0  0  0  0  0  0
   31.4828   32.5600   89.2553 H   0  0  0  0  0  0  0  0  0  0  0  0
   31.8628   31.7047   87.7523 H   0  0  0  0  0  0  0  0  0  0  0  0
   34.7495   33.6587   96.1166 H   0  0  0  0  0  0  0  0  0  0  0  0
   32.9372   35.2850   96.5463 H   0  0  0  0  0  0  0  0  0  0  0  0
   34.0854   36.6173   96.4670 H   0  0  0  0  0  0  0  0  0  0  0  0
   34.2088   35.4236   97.7522 H   0  0  0  0  0  0  0  0  0  0  0  0
   37.0451   34.3368   95.5419 H   0  0  0  0  0  0  0  0  0  0  0  0
   36.6421   36.0322   95.7910 H   0  0  0  0  0  0  0  0  0  0  0  0
   36.6320   34.9141   97.1507 H   0  0  0  0  0  0  0  0  0  0  0  0
   33.3617   34.6954   90.1182 H   0  0  0  0  0  0  0  0  0  0  0  0
  1  2  1  0
  1  6  1  0
  1 18  1  0
  1 19  1  0
  2  3  1  0
  2 20  1  0
  2 21  1  0
  3  4  1  0
  3  7  1  0
  3 22  1  1
  4  5  1  0
  4 23  1  0
  4 24  1  0
  5  6  1  0
  5 17  1  0
  5 25  1  6
  6  7  1  0
  6 26  1  6
  7 27  1  0
  7 28  1  0
  8  9  1  0
  8 12  2  0
  8 17  1  0
  9 10  1  0
 10 11  1  0
 10 14  1  0
 11 12  1  0
 11 13  2  0
 14 15  1  0
 14 16  1  0
 14 29  1  1
 15 30  1  0
 15 31  1  0
 15 32  1  0
 16 33  1  0
 16 34  1  0
 16 35  1  0
 17 36  1  0
M  CHG  1  10  -1
M  END
>  <Name>  (39) 
BDB50319660

>  <Target>  (39) 
11-beta-Hydroxysteroid Dehydrogenase 1 (11-beta-HSD1)

>  <Ki_in_nM>  (39) 
12.2

>  <IC50_in_nM>  (39) 
 15.3

>  <Kd_from_ITC>  (39) 
false

>  <Uniprot_ID>  (39) 
P28845

>  <source_organism>  (39) 
Homo sapiens

>  <SourceTag>  (39) 
11betaHSD1

>  <s_i_glide_gridfile>  (39) 
11betahsd1_glide-grid

>  <i_i_glide_lignum>  (39) 
32

>  <i_i_glide_rotatable_bonds>  (39) 
3

>  <r_i_docking_score>  (39) 
-7.97812964449108

>  <r_i_glide_ligand_efficiency>  (39) 
-0.469301743793593

>  <r_i_glide_ligand_efficiency_sa>  (39) 
-1.20670693314065

>  <r_i_glide_ligand_efficiency_ln>  (39) 
-2.08131636003563

>  <r_i_glide_gscore>  (39) 
-7.97812964449108

>  <r_i_glide_lipo>  (39) 
-3.41916521478071

>  <r_i_glide_hbond>  (39) 
-0.320485817042378

>  <r_i_glide_metal>  (39) 
-0

>  <r_i_glide_rewards>  (39) 
-2.25197960047466

>  <r_i_glide_evdw>  (39) 
-29.1543083190918

>  <r_i_glide_ecoul>  (39) 
-7.22376441955566

>  <r_i_glide_erotb>  (39) 
0.554781066694602

>  <r_i_glide_esite>  (39) 
0

>  <r_i_glide_emodel>  (39) 
-56.2909895629495

>  <r_i_glide_energy>  (39) 
-36.3780727386475

>  <r_i_glide_einternal>  (39) 
5.4903359413147

>  <i_i_glide_confnum>  (39) 
2

>  <i_i_glide_posenum>  (39) 
229

>  <r_i_glide_eff_state_penalty>  (39) 
0

$$$$
BDB50319665-32-0000
     RDKit          3D

 40 42  0  0  1  0  0  0  0  0999 V2000
   35.1800   30.4796   91.2902 C   0  0  0  0  0  0  0  0  0  0  0  0
   34.7505   30.1859   89.8368 C   0  0  0  0  0  0  0  0  0  0  0  0
   34.7482   31.5944   89.1998 C   0  0  1  0  0  0  0  0  0  0  0  0
   33.5666   32.4222   89.7534 C   0  0  0  0  0  0  0  0  0  0  0  0
   33.9843   32.7189   91.2153 C   0  0  1  0  0  0  0  0  0  0  0  0
   35.3670   32.0149   91.2891 C   0  0  2  0  0  0  0  0  0  0  0  0
   35.9396   32.2508   89.8945 C   0  0  0  0  0  0  0  0  0  0  0  0
   34.2485   34.7393   92.7147 C   0  0  0  0  0  0  0  0  0  0  0  0
   34.4875   33.7287   94.1588 S   0  0  0  0  0  0  0  0  0  0  0  0
   34.6647   35.2274   95.1531 C   0  0  2  0  0  0  0  0  0  0  0  0
   34.4770   36.3973   94.1601 C   0  0  0  0  0  0  0  0  0  0  0  0
   34.2682   35.9949   92.8574 N   0  0  0  0  0  0  0  0  0  0  0  0
   34.5136   37.5727   94.5290 O   0  0  0  0  0  0  0  0  0  0  0  0
   36.0756   35.3101   95.8447 C   0  0  2  0  0  0  0  0  0  0  0  0
   37.2804   35.3180   94.8673 C   0  0  0  0  0  0  0  0  0  0  0  0
   36.3064   34.2329   96.9306 C   0  0  0  0  0  0  0  0  0  0  0  0
   33.4890   35.2818   96.1636 C   0  0  0  0  0  0  0  0  0  0  0  0
   34.0477   34.1601   91.4748 N   0  0  0  0  0  0  0  0  0  0  0  0
   36.1146   29.9677   91.5263 H   0  0  0  0  0  0  0  0  0  0  0  0
   34.4422   30.1508   92.0221 H   0  0  0  0  0  0  0  0  0  0  0  0
   33.7783   29.6966   89.7730 H   0  0  0  0  0  0  0  0  0  0  0  0
   35.4763   29.5379   89.3412 H   0  0  0  0  0  0  0  0  0  0  0  0
   34.8055   31.5797   88.1104 H   0  0  0  0  0  0  0  0  0  0  0  0
   32.6236   31.8708   89.7018 H   0  0  0  0  0  0  0  0  0  0  0  0
   33.4328   33.3314   89.1651 H   0  0  0  0  0  0  0  0  0  0  0  0
   33.2839   32.2452   91.9074 H   0  0  0  0  0  0  0  0  0  0  0  0
   36.0132   32.3602   92.0976 H   0  0  0  0  0  0  0  0  0  0  0  0
   36.0699   33.3061   89.6435 H   0  0  0  0  0  0  0  0  0  0  0  0
   36.8915   31.7400   89.7336 H   0  0  0  0  0  0  0  0  0  0  0  0
   36.1133   36.2661   96.3696 H   0  0  0  0  0  0  0  0  0  0  0  0
   37.3203   34.4005   94.2804 H   0  0  0  0  0  0  0  0  0  0  0  0
   38.2259   35.4024   95.4055 H   0  0  0  0  0  0  0  0  0  0  0  0
   37.2398   36.1586   94.1726 H   0  0  0  0  0  0  0  0  0  0  0  0
   36.2503   33.2259   96.5142 H   0  0  0  0  0  0  0  0  0  0  0  0
   37.2870   34.3413   97.3919 H   0  0  0  0  0  0  0  0  0  0  0  0
   35.5783   34.3017   97.7397 H   0  0  0  0  0  0  0  0  0  0  0  0
   33.4962   36.2059   96.7502 H   0  0  0  0  0  0  0  0  0  0  0  0
   32.5149   35.2176   95.6696 H   0  0  0  0  0  0  0  0  0  0  0  0
   33.5301   34.4544   96.8719 H   0  0  0  0  0  0  0  0  0  0  0  0
   33.9650   34.7535   90.6633 H   0  0  0  0  0  0  0  0  0  0  0  0
  1  6  1  0
  1  2  1  0
  1 19  1  0
  1 20  1  0
  2  3  1  0
  2 21  1  0
  2 22  1  0
  3  4  1  0
  3  7  1  0
  3 23  1  6
  4  5  1  0
  4 24  1  0
  4 25  1  0
  5  6  1  0
  5 18  1  0
  5 26  1  1
  6  7  1  0
  6 27  1  1
  7 28  1  0
  7 29  1  0
  8  9  1  0
  8 12  2  0
  8 18  1  0
  9 10  1  0
 10 11  1  0
 10 14  1  0
 10 17  1  1
 11 12  1  0
 11 13  2  0
 14 15  1  0
 14 16  1  0
 14 30  1  1
 15 31  1  0
 15 32  1  0
 15 33  1  0
 16 34  1  0
 16 35  1  0
 16 36  1  0
 17 37  1  0
 17 38  1  0
 17 39  1  0
 18 40  1  0
M  END
>  <Name>  (40) 
BDB50319665

>  <Target>  (40) 
11-beta-Hydroxysteroid Dehydrogenase 1 (11-beta-HSD1)

>  <Ki_in_nM>  (40) 
12.8

>  <IC50_in_nM>  (40) 
>10000

>  <Kd_from_ITC>  (40) 
false

>  <Uniprot_ID>  (40) 
P28845

>  <source_organism>  (40) 
Homo sapiens

>  <SourceTag>  (40) 
11betaHSD1

>  <s_i_glide_gridfile>  (40) 
11betahsd1_glide-grid

>  <i_i_glide_lignum>  (40) 
33

>  <i_i_glide_rotatable_bonds>  (40) 
3

>  <r_i_docking_score>  (40) 
-7.7988329110472

>  <r_i_glide_ligand_efficiency>  (40) 
-0.433268495058178

>  <r_i_glide_ligand_efficiency_sa>  (40) 
-1.13548467871157

>  <r_i_glide_ligand_efficiency_ln>  (40) 
-2.00464978577385

>  <r_i_glide_gscore>  (40) 
-7.7988329110472

>  <r_i_glide_lipo>  (40) 
-3.20014636415028

>  <r_i_glide_hbond>  (40) 
-0.166420696568726

>  <r_i_glide_metal>  (40) 
-0

>  <r_i_glide_rewards>  (40) 
-2.8714940193325

>  <r_i_glide_evdw>  (40) 
-33.1804161071777

>  <r_i_glide_ecoul>  (40) 
-2.6916229724884

>  <r_i_glide_erotb>  (40) 
0.50199242023646

>  <r_i_glide_esite>  (40) 
0

>  <r_i_glide_emodel>  (40) 
-50.5309765333189

>  <r_i_glide_energy>  (40) 
-35.8720390796661

>  <r_i_glide_einternal>  (40) 
4.16569709777832

>  <i_i_glide_confnum>  (40) 
4

>  <i_i_glide_posenum>  (40) 
357

>  <r_i_glide_eff_state_penalty>  (40) 
0

$$$$
