BDB50195506-24-0000
     RDKit          3D

 39 42  0  0  1  0  0  0  0  0999 V2000
   33.9533   34.5797   92.2732 C   0  0  0  0  0  0  0  0  0  0  0  0
   34.5949   34.6319   93.6388 C   0  0  0  0  0  0  0  0  0  0  0  0
   35.9346   34.2727   93.8059 C   0  0  0  0  0  0  0  0  0  0  0  0
   36.5187   34.2228   95.0661 C   0  0  0  0  0  0  0  0  0  0  0  0
   35.7691   34.5975   96.1853 C   0  0  0  0  0  0  0  0  0  0  0  0
   34.4592   35.0774   96.0179 C   0  0  0  0  0  0  0  0  0  0  0  0
   33.8766   35.0874   94.7486 C   0  0  0  0  0  0  0  0  0  0  0  0
   33.5244   35.6633   97.3515 Cl  0  0  0  0  0  0  0  0  0  0  0  0
   38.1543   33.6657   95.1985 Cl  0  0  0  0  0  0  0  0  0  0  0  0
   36.3296   34.4663   97.4534 N   0  0  0  0  0  0  0  0  0  0  0  0
   33.3182   35.5710   91.9078 O   0  0  0  0  0  0  0  0  0  0  0  0
   34.1344   33.4748   91.4860 N   0  0  0  0  0  0  0  0  0  0  0  0
   34.5785   30.7408   89.3579 C   0  0  0  0  0  0  0  0  0  0  0  0
   33.3157   30.9675   90.2187 C   0  0  1  0  0  0  0  0  0  0  0  0
   35.6021   31.8780   89.5670 C   0  0  2  0  0  0  0  0  0  0  0  0
   33.7475   31.0784   91.7002 C   0  0  0  0  0  0  0  0  0  0  0  0
   35.9791   31.9290   91.0583 C   0  0  0  0  0  0  0  0  0  0  0  0
   34.7622   32.2111   91.9846 C   0  0  1  0  0  0  0  0  0  0  0  0
   34.9247   33.2171   89.2195 C   0  0  0  0  0  0  0  0  0  0  0  0
   33.6630   33.5251   90.0724 C   0  0  1  0  0  0  0  0  0  0  0  0
   32.7001   32.3290   89.8422 C   0  0  0  0  0  0  0  0  0  0  0  0
   36.5152   33.9816   92.9513 H   0  0  0  0  0  0  0  0  0  0  0  0
   32.8561   35.4267   94.6399 H   0  0  0  0  0  0  0  0  0  0  0  0
   35.6734   34.4527   98.2236 H   0  0  0  0  0  0  0  0  0  0  0  0
   37.1326   33.8569   97.5116 H   0  0  0  0  0  0  0  0  0  0  0  0
   35.0328   29.7798   89.6074 H   0  0  0  0  0  0  0  0  0  0  0  0
   34.3073   30.6702   88.3034 H   0  0  0  0  0  0  0  0  0  0  0  0
   32.5968   30.1606   90.0731 H   0  0  0  0  0  0  0  0  0  0  0  0
   36.4915   31.7503   88.9592 H   0  0  0  0  0  0  0  0  0  0  0  0
   32.8764   31.2637   92.3277 H   0  0  0  0  0  0  0  0  0  0  0  0
   34.1553   30.1241   92.0404 H   0  0  0  0  0  0  0  0  0  0  0  0
   36.4553   30.9900   91.3484 H   0  0  0  0  0  0  0  0  0  0  0  0
   36.7492   32.6861   91.2028 H   0  0  0  0  0  0  0  0  0  0  0  0
   35.0241   32.1871   93.0406 H   0  0  0  0  0  0  0  0  0  0  0  0
   35.6489   34.0241   89.3517 H   0  0  0  0  0  0  0  0  0  0  0  0
   34.6686   33.2370   88.1582 H   0  0  0  0  0  0  0  0  0  0  0  0
   33.1868   34.4585   89.7843 H   0  0  0  0  0  0  0  0  0  0  0  0
   32.3818   32.3105   88.7985 H   0  0  0  0  0  0  0  0  0  0  0  0
   31.7850   32.4827   90.4153 H   0  0  0  0  0  0  0  0  0  0  0  0
  1 11  2  0
  1 12  1  0
  1  2  1  0
  2  7  1  0
  2  3  2  0
  3  4  1  0
  3 22  1  0
  4  5  2  0
  4  9  1  0
  5  6  1  0
  5 10  1  0
  6  7  2  0
  6  8  1  0
  7 23  1  0
 10 24  1  0
 10 25  1  0
 12 18  1  0
 12 20  1  0
 13 14  1  0
 13 15  1  0
 13 26  1  0
 13 27  1  0
 14 16  1  0
 14 21  1  0
 14 28  1  1
 15 17  1  0
 15 19  1  0
 15 29  1  6
 16 18  1  0
 16 30  1  0
 16 31  1  0
 17 18  1  0
 17 32  1  0
 17 33  1  0
 18 34  1  1
 19 20  1  0
 19 35  1  0
 19 36  1  0
 20 21  1  0
 20 37  1  6
 21 38  1  0
 21 39  1  0
M  END
>  <Name>  (1) 
BDB50195506

>  <Target>  (1) 
11-beta-Hydroxysteroid Dehydrogenase 1 (11-beta-HSD1)

>  <Ki_in_nM>  (1) 
4

>  <IC50_in_nM>  (1) 
 41

>  <Kd_from_ITC>  (1) 
false

>  <Uniprot_ID>  (1) 
P28845

>  <source_organism>  (1) 
Homo sapiens

>  <SourceTag>  (1) 
11betaHSD1

>  <s_i_glide_gridfile>  (1) 
11betahsd1_glide-grid

>  <i_i_glide_lignum>  (1) 
25

>  <i_i_glide_rotatable_bonds>  (1) 
2

>  <r_i_docking_score>  (1) 
-8.67609462220404

>  <r_i_glide_ligand_efficiency>  (1) 
-0.413147362962097

>  <r_i_glide_ligand_efficiency_sa>  (1) 
-1.13984224692748

>  <r_i_glide_ligand_efficiency_ln>  (1) 
-2.14514686364001

>  <r_i_glide_gscore>  (1) 
-8.67609462220404

>  <r_i_glide_lipo>  (1) 
-4.08357941105134

>  <r_i_glide_hbond>  (1) 
-0.0634049678716079

>  <r_i_glide_metal>  (1) 
-0

>  <r_i_glide_rewards>  (1) 
-2.71577112793403

>  <r_i_glide_evdw>  (1) 
-33.9266738891602

>  <r_i_glide_ecoul>  (1) 
-3.14206314086914

>  <r_i_glide_erotb>  (1) 
0.354304050241313

>  <r_i_glide_esite>  (1) 
0

>  <r_i_glide_emodel>  (1) 
-57.4594848909037

>  <r_i_glide_energy>  (1) 
-37.0687370300293

>  <r_i_glide_einternal>  (1) 
0.427364498376846

>  <i_i_glide_confnum>  (1) 
7

>  <i_i_glide_posenum>  (1) 
81

>  <r_i_glide_eff_state_penalty>  (1) 
0

$$$$
