BDB50248569-21-0000
     RDKit          3D

 56 58  0  0  1  0  0  0  0  0999 V2000
   40.4302   34.0859  100.9615 C   0  0  0  0  0  0  0  0  0  0  0  0
   39.9718   32.6662  101.3500 C   0  0  0  0  0  0  0  0  0  0  0  0
   38.8614   32.4644  101.8360 O   0  0  0  0  0  0  0  0  0  0  0  0
   35.1457   32.6998   92.0414 C   0  0  0  0  0  0  0  0  0  0  0  0
   35.0327   32.1117   93.3138 C   0  0  0  0  0  0  0  0  0  0  0  0
   35.2448   32.8607   94.4713 C   0  0  0  0  0  0  0  0  0  0  0  0
   35.5533   34.2148   94.3692 C   0  0  0  0  0  0  0  0  0  0  0  0
   35.6609   34.8139   93.1112 C   0  0  0  0  0  0  0  0  0  0  0  0
   35.4629   34.0601   91.9606 C   0  0  0  0  0  0  0  0  0  0  0  0
   34.8952   31.9070   90.7349 C   0  0  2  0  0  0  0  0  0  0  0  0
   35.8933   32.1891   89.7585 O   0  0  0  0  0  0  0  0  0  0  0  0
   33.5011   32.2713   90.1264 C   0  0  0  0  0  0  0  0  0  0  0  0
   35.0226   30.3763   90.9298 C   0  0  0  0  0  0  0  0  0  0  0  0
   35.7614   35.2212   95.8437 S   0  0  0  0  0  0  0  0  0  0  0  0
   37.1645   34.5934   96.7873 N   0  0  0  0  0  0  0  0  0  0  0  0
   36.0934   36.5635   95.3530 O   0  0  0  0  0  0  0  0  0  0  0  0
   34.5484   35.0226   96.6449 O   0  0  0  0  0  0  0  0  0  0  0  0
   38.5016   34.2416   96.2279 C   0  0  2  0  0  0  0  0  0  0  0  0
   39.6596   34.5663   97.2074 C   0  0  0  0  0  0  0  0  0  0  0  0
   39.4291   34.0614   98.5613 N   0  0  0  0  0  0  0  0  0  0  0  0
   38.1637   34.5784   99.0654 C   0  0  0  0  0  0  0  0  0  0  0  0
   36.9789   34.1229   98.1706 C   0  0  0  0  0  0  0  0  0  0  0  0
   38.7371   34.9960   94.9375 C   0  0  0  0  0  0  0  0  0  0  0  0
   40.5573   34.4104   99.4424 C   0  0  0  0  0  0  0  0  0  0  0  0
   33.4316   33.5533   89.7613 F   0  0  0  0  0  0  0  0  0  0  0  0
   32.5143   32.0646   90.9975 F   0  0  0  0  0  0  0  0  0  0  0  0
   33.2156   31.5554   89.0355 F   0  0  0  0  0  0  0  0  0  0  0  0
   41.4215   34.7248  101.9199 C   0  0  0  0  0  0  0  0  0  0  0  0
   39.9891   35.1976  101.9050 C   0  0  0  0  0  0  0  0  0  0  0  0
   40.8183   31.6675  101.1255 N   0  0  0  0  0  0  0  0  0  0  0  0
   34.7782   31.0696   93.4285 H   0  0  0  0  0  0  0  0  0  0  0  0
   35.1510   32.3925   95.4412 H   0  0  0  0  0  0  0  0  0  0  0  0
   35.8979   35.8638   93.0152 H   0  0  0  0  0  0  0  0  0  0  0  0
   35.5513   34.5425   90.9995 H   0  0  0  0  0  0  0  0  0  0  0  0
   35.7787   33.0890   89.4442 H   0  0  0  0  0  0  0  0  0  0  0  0
   34.2394   30.0013   91.5848 H   0  0  0  0  0  0  0  0  0  0  0  0
   34.9269   29.8349   89.9871 H   0  0  0  0  0  0  0  0  0  0  0  0
   35.9867   30.0992   91.3594 H   0  0  0  0  0  0  0  0  0  0  0  0
   38.4974   33.1691   96.0268 H   0  0  0  0  0  0  0  0  0  0  0  0
   39.8957   35.6299   97.2239 H   0  0  0  0  0  0  0  0  0  0  0  0
   40.5363   34.0654   96.8175 H   0  0  0  0  0  0  0  0  0  0  0  0
   38.2399   35.6614   99.0966 H   0  0  0  0  0  0  0  0  0  0  0  0
   38.1168   34.2056  100.0776 H   0  0  0  0  0  0  0  0  0  0  0  0
   36.0166   34.4633   98.5354 H   0  0  0  0  0  0  0  0  0  0  0  0
   36.9154   33.0563   98.1615 H   0  0  0  0  0  0  0  0  0  0  0  0
   39.7605   34.8634   94.5968 H   0  0  0  0  0  0  0  0  0  0  0  0
   38.1022   34.5857   94.1657 H   0  0  0  0  0  0  0  0  0  0  0  0
   38.5387   36.0647   94.9603 H   0  0  0  0  0  0  0  0  0  0  0  0
   41.4411   33.9024   99.0668 H   0  0  0  0  0  0  0  0  0  0  0  0
   40.7489   35.4768   99.3504 H   0  0  0  0  0  0  0  0  0  0  0  0
   41.7808   34.1581  102.7805 H   0  0  0  0  0  0  0  0  0  0  0  0
   42.1974   35.3756  101.5154 H   0  0  0  0  0  0  0  0  0  0  0  0
   39.7600   36.1779  101.4858 H   0  0  0  0  0  0  0  0  0  0  0  0
   39.3452   34.9620  102.7550 H   0  0  0  0  0  0  0  0  0  0  0  0
   40.5240   30.7191  101.3312 H   0  0  0  0  0  0  0  0  0  0  0  0
   41.7398   31.8429  100.7594 H   0  0  0  0  0  0  0  0  0  0  0  0
  1 28  1  0
  1 29  1  0
  1 24  1  0
  1  2  1  0
  2  3  2  0
  2 30  1  0
  4  5  2  0
  4  9  1  0
  4 10  1  0
  5  6  1  0
  5 31  1  0
  6  7  2  0
  6 32  1  0
  7  8  1  0
  7 14  1  0
  8  9  2  0
  8 33  1  0
  9 34  1  0
 10 11  1  6
 10 12  1  0
 10 13  1  0
 11 35  1  0
 12 25  1  0
 12 26  1  0
 12 27  1  0
 13 36  1  0
 13 37  1  0
 13 38  1  0
 14 15  1  0
 14 16  2  0
 14 17  2  0
 15 18  1  0
 15 22  1  0
 18 19  1  0
 18 23  1  0
 18 39  1  6
 19 20  1  0
 19 40  1  0
 19 41  1  0
 20 21  1  0
 20 24  1  0
 21 22  1  0
 21 42  1  0
 21 43  1  0
 22 44  1  0
 22 45  1  0
 23 46  1  0
 23 47  1  0
 23 48  1  0
 24 49  1  0
 24 50  1  0
 28 29  1  0
 28 51  1  0
 28 52  1  0
 29 53  1  0
 29 54  1  0
 30 55  1  0
 30 56  1  0
M  END
>  <Name>  (1) 
BDB50248569

>  <Target>  (1) 
11-beta-Hydroxysteroid Dehydrogenase 1 (11-beta-HSD1)

>  <Ki_in_nM>  (1) 
2.7

>  <IC50_in_nM>  (1) 
 14

>  <Kd_from_ITC>  (1) 
false

>  <Uniprot_ID>  (1) 
P28845

>  <source_organism>  (1) 
Homo sapiens

>  <SourceTag>  (1) 
11betaHSD1

>  <s_i_glide_gridfile>  (1) 
11betahsd1_glide-grid

>  <i_i_glide_lignum>  (1) 
22

>  <i_i_glide_rotatable_bonds>  (1) 
8

>  <r_i_docking_score>  (1) 
-6.88164748527915

>  <r_i_glide_ligand_efficiency>  (1) 
-0.229388249509305

>  <r_i_glide_ligand_efficiency_sa>  (1) 
-0.712762624551085

>  <r_i_glide_ligand_efficiency_ln>  (1) 
-1.56358529021033

>  <r_i_glide_gscore>  (1) 
-6.88164748527915

>  <r_i_glide_lipo>  (1) 
-3.42396562498496

>  <r_i_glide_hbond>  (1) 
-0.319064192512908

>  <r_i_glide_metal>  (1) 
-0

>  <r_i_glide_rewards>  (1) 
-1.78888120775662

>  <r_i_glide_evdw>  (1) 
-28.4419231414795

>  <r_i_glide_ecoul>  (1) 
-2.62323379516602

>  <r_i_glide_erotb>  (1) 
0.495973684656567

>  <r_i_glide_esite>  (1) 
-0.0301289183323596

>  <r_i_glide_emodel>  (1) 
-34.5756540358918

>  <r_i_glide_energy>  (1) 
-31.0651569366455

>  <r_i_glide_einternal>  (1) 
3.65027689933777

>  <i_i_glide_confnum>  (1) 
80

>  <i_i_glide_posenum>  (1) 
74

>  <r_i_glide_eff_state_penalty>  (1) 
0

$$$$
