BDB50210886-36-0000
     RDKit          3D

 49 52  0  0  1  0  0  0  0  0999 V2000
   32.9647   30.0638   85.9992 C   0  0  0  0  0  0  0  0  0  0  0  0
   34.0679   29.3192   85.5750 C   0  0  0  0  0  0  0  0  0  0  0  0
   35.0092   28.9112   86.5112 C   0  0  0  0  0  0  0  0  0  0  0  0
   32.8262   30.4600   87.3429 C   0  0  0  0  0  0  0  0  0  0  0  0
   33.8591   30.1542   88.2222 C   0  0  0  0  0  0  0  0  0  0  0  0
   34.9154   29.3984   87.8108 C   0  0  0  0  0  0  0  0  0  0  0  0
   35.7278   29.2639   88.8948 N   0  0  0  0  0  0  0  0  0  0  0  0
   35.2687   29.9621   89.9487 C   0  0  0  0  0  0  0  0  0  0  0  0
   34.0628   30.4665   89.5501 N   0  0  0  0  0  0  0  0  0  0  0  0
   35.8470   30.0638   91.0237 O   0  0  0  0  0  0  0  0  0  0  0  0
   33.0545   31.1697   90.3755 C   0  0  0  0  0  0  0  0  0  0  0  0
   33.3154   31.3313   91.8973 C   0  0  0  0  0  0  0  0  0  0  0  0
   34.4105   32.3477   92.2849 C   0  0  0  0  0  0  0  0  0  0  0  0
   34.1836   33.6182   91.5553 N   0  0  0  0  0  0  0  0  0  0  0  0
   33.9088   33.5354   90.1098 C   0  0  0  0  0  0  0  0  0  0  0  0
   32.7326   32.5933   89.8971 C   0  0  0  0  0  0  0  0  0  0  0  0
   34.1682   34.8124   92.2122 C   0  0  0  0  0  0  0  0  0  0  0  0
   34.8303   34.8531   93.5579 C   0  0  0  0  0  0  0  0  0  0  0  0
   33.7144   35.8594   91.7523 O   0  0  0  0  0  0  0  0  0  0  0  0
   36.1154   34.3190   93.7024 C   0  0  0  0  0  0  0  0  0  0  0  0
   36.7098   34.1950   94.9524 C   0  0  0  0  0  0  0  0  0  0  0  0
   36.0006   34.6341   96.0758 C   0  0  0  0  0  0  0  0  0  0  0  0
   34.7501   35.2497   95.9279 C   0  0  0  0  0  0  0  0  0  0  0  0
   34.1660   35.3682   94.6709 C   0  0  0  0  0  0  0  0  0  0  0  0
   36.5463   34.4204   97.4624 C   0  0  0  0  0  0  0  0  0  0  0  0
   38.0806   33.5361   95.0542 C   0  0  0  0  0  0  0  0  0  0  0  0
   32.2048   30.3398   85.2849 H   0  0  0  0  0  0  0  0  0  0  0  0
   34.1154   28.9857   84.5523 H   0  0  0  0  0  0  0  0  0  0  0  0
   35.7910   28.2410   86.2028 H   0  0  0  0  0  0  0  0  0  0  0  0
   31.9396   30.9948   87.6441 H   0  0  0  0  0  0  0  0  0  0  0  0
   36.5992   28.7539   88.8950 H   0  0  0  0  0  0  0  0  0  0  0  0
   32.1586   30.5775   90.1917 H   0  0  0  0  0  0  0  0  0  0  0  0
   33.5519   30.3784   92.3663 H   0  0  0  0  0  0  0  0  0  0  0  0
   32.3942   31.6638   92.3790 H   0  0  0  0  0  0  0  0  0  0  0  0
   35.4170   32.0102   92.0601 H   0  0  0  0  0  0  0  0  0  0  0  0
   34.2997   32.4572   93.3648 H   0  0  0  0  0  0  0  0  0  0  0  0
   33.6336   34.4638   89.6520 H   0  0  0  0  0  0  0  0  0  0  0  0
   34.7986   33.1538   89.6067 H   0  0  0  0  0  0  0  0  0  0  0  0
   31.8493   32.9812   90.3999 H   0  0  0  0  0  0  0  0  0  0  0  0
   32.4783   32.6212   88.8425 H   0  0  0  0  0  0  0  0  0  0  0  0
   36.6320   33.9372   92.8345 H   0  0  0  0  0  0  0  0  0  0  0  0
   34.2062   35.6051   96.7914 H   0  0  0  0  0  0  0  0  0  0  0  0
   33.1816   35.8058   94.5785 H   0  0  0  0  0  0  0  0  0  0  0  0
   37.5331   34.8638   97.5874 H   0  0  0  0  0  0  0  0  0  0  0  0
   35.8488   34.8639   98.1523 H   0  0  0  0  0  0  0  0  0  0  0  0
   36.6182   33.3575   97.6834 H   0  0  0  0  0  0  0  0  0  0  0  0
   38.2591   32.8638   94.2136 H   0  0  0  0  0  0  0  0  0  0  0  0
   38.8677   34.2906   95.0765 H   0  0  0  0  0  0  0  0  0  0  0  0
   38.1686   32.9207   95.9486 H   0  0  0  0  0  0  0  0  0  0  0  0
  1  2  2  0
  1  4  1  0
  1 27  1  0
  2  3  1  0
  2 28  1  0
  3  6  2  0
  3 29  1  0
  4  5  2  0
  4 30  1  0
  5  9  1  0
  5  6  1  0
  6  7  1  0
  7  8  1  0
  7 31  1  0
  8  9  1  0
  8 10  2  0
  9 11  1  0
 11 16  1  0
 11 12  1  0
 11 32  1  0
 12 13  1  0
 12 33  1  0
 12 34  1  0
 13 14  1  0
 13 35  1  0
 13 36  1  0
 14 15  1  0
 14 17  1  0
 15 16  1  0
 15 37  1  0
 15 38  1  0
 16 39  1  0
 16 40  1  0
 17 18  1  0
 17 19  2  0
 18 20  2  0
 18 24  1  0
 20 21  1  0
 20 41  1  0
 21 22  2  0
 21 26  1  0
 22 23  1  0
 22 25  1  0
 23 24  2  0
 23 42  1  0
 24 43  1  0
 25 44  1  0
 25 45  1  0
 25 46  1  0
 26 47  1  0
 26 48  1  0
 26 49  1  0
M  END
>  <Name>  (1) 
BDB50210886

>  <Target>  (1) 
11-beta-Hydroxysteroid Dehydrogenase 1 (11-beta-HSD1)

>  <Ki_in_nM>  (1) 
100

>  <Kd_from_ITC>  (1) 
false

>  <Uniprot_ID>  (1) 
P28845

>  <source_organism>  (1) 
Homo sapiens

>  <SourceTag>  (1) 
11betaHSD1

>  <s_i_glide_gridfile>  (1) 
11betahsd1_glide-grid

>  <i_i_glide_lignum>  (1) 
37

>  <i_i_glide_rotatable_bonds>  (1) 
3

>  <r_i_docking_score>  (1) 
-8.87130543077926

>  <r_i_glide_ligand_efficiency>  (1) 
-0.341204055029972

>  <r_i_glide_ligand_efficiency_sa>  (1) 
-1.01081567045317

>  <r_i_glide_ligand_efficiency_ln>  (1) 
-2.08339697129114

>  <r_i_glide_gscore>  (1) 
-8.87130543077926

>  <r_i_glide_lipo>  (1) 
-4.01684665847508

>  <r_i_glide_hbond>  (1) 
-0.204130113222825

>  <r_i_glide_metal>  (1) 
-0

>  <r_i_glide_rewards>  (1) 
-3.19308853703375

>  <r_i_glide_evdw>  (1) 
-27.2547340393066

>  <r_i_glide_ecoul>  (1) 
-3.75022101402283

>  <r_i_glide_erotb>  (1) 
0.468029732021144

>  <r_i_glide_esite>  (1) 
0

>  <r_i_glide_emodel>  (1) 
-43.7419640385409

>  <r_i_glide_energy>  (1) 
-31.0049550533295

>  <r_i_glide_einternal>  (1) 
2.45755529403687

>  <i_i_glide_confnum>  (1) 
17

>  <i_i_glide_posenum>  (1) 
350

>  <r_i_glide_eff_state_penalty>  (1) 
0

$$$$
