BDB50202105-26-0000
     RDKit          3D

 27 31  0  0  1  0  0  0  0  0999 V2000
   35.0915   34.8075   94.5459 N   0  0  0  0  0  0  0  0  0  0  0  0
   34.9570   34.6022   95.9810 C   0  0  0  0  0  0  0  0  0  0  0  0
   35.9136   33.4551   96.3417 C   0  0  0  0  0  0  0  0  0  0  0  0
   37.3251   33.8323   96.1475 N   0  0  0  0  0  0  0  0  0  0  0  0
   37.4981   34.2474   94.7401 C   0  0  0  0  0  0  0  0  0  0  0  0
   36.4506   35.2813   94.2575 C   0  0  0  0  0  0  0  0  0  0  0  0
   38.2487   34.0639   97.1683 C   0  0  0  0  0  0  0  0  0  0  0  0
   39.5968   34.2689   96.8816 C   0  0  0  0  0  0  0  0  0  0  0  0
   40.5153   34.4638   97.9037 C   0  0  0  0  0  0  0  0  0  0  0  0
   40.1383   34.4376   99.2349 C   0  0  0  0  0  0  0  0  0  0  0  0
   38.8124   34.2413   99.5409 C   0  0  0  0  0  0  0  0  0  0  0  0
   35.2389   30.4156   89.6010 C   0  0  0  0  0  0  0  0  0  0  0  0
   35.5896   31.0989   90.9433 C   0  0  1  0  0  0  0  0  0  0  0  0
   34.0722   31.1340   88.8866 C   0  0  2  0  0  0  0  0  0  0  0  0
   35.9589   32.5776   90.6531 C   0  0  0  0  0  0  0  0  0  0  0  0
   34.4650   32.6122   88.6692 C   0  0  0  0  0  0  0  0  0  0  0  0
   34.7862   33.3670   89.9910 C   0  0  1  0  0  0  0  0  0  0  0  0
   32.8494   31.1214   89.8273 C   0  0  0  0  0  0  0  0  0  0  0  0
   33.1079   31.8307   91.1882 C   0  0  1  0  0  0  0  0  0  0  0  0
   34.3204   31.0839   91.8396 C   0  0  0  0  0  0  0  0  0  0  0  0
   33.5449   33.3113   90.9479 C   0  0  1  0  0  0  0  0  0  0  0  0
   33.8341   33.9316   92.2437 N   0  0  0  0  0  0  0  0  0  0  0  0
   33.7154   35.2322   92.5557 C   0  0  0  0  0  0  0  0  0  0  0  0
   33.3162   36.0638   91.7523 O   0  0  0  0  0  0  0  0  0  0  0  0
   34.0516   35.6799   93.9892 C   0  0  0  0  0  0  0  0  0  0  0  0
   41.2941   34.5869  100.5112 Cl  0  0  0  0  0  0  0  0  0  0  0  0
   37.8786   34.0638   98.5182 C   0  0  0  0  0  0  0  0  0  0  0  0
  1  2  1  0
  1  6  1  0
  1 25  1  0
  2  3  1  0
  3  4  1  0
  4  7  1  0
  4  5  1  0
  5  6  1  0
  7  8  2  0
  7 27  1  0
  8  9  1  0
  9 10  2  0
 10 11  1  0
 10 26  1  0
 11 27  2  0
 13 12  1  6
 14 12  1  1
 13 15  1  0
 13 20  1  0
 14 16  1  0
 14 18  1  0
 17 15  1  1
 16 17  1  0
 17 21  1  0
 19 18  1  6
 19 21  1  0
 19 20  1  0
 21 22  1  1
 22 23  1  0
 23 24  2  0
 23 25  1  0
M  END
>  <Name>  (1) 
BDB50202105

>  <Target>  (1) 
11-beta-Hydroxysteroid Dehydrogenase 1 (11-beta-HSD1)

>  <Ki_in_nM>  (1) 
5

>  <IC50_in_nM>  (1) 
 210

>  <Kd_from_ITC>  (1) 
false

>  <Uniprot_ID>  (1) 
P28845

>  <source_organism>  (1) 
Homo sapiens

>  <SourceTag>  (1) 
11betaHSD1

>  <s_i_glide_gridfile>  (1) 
11betahsd1_glide-grid

>  <i_i_glide_lignum>  (1) 
27

>  <i_i_glide_rotatable_bonds>  (1) 
5

>  <r_i_docking_score>  (1) 
-8.90765361859696

>  <r_i_glide_ligand_efficiency>  (1) 
-0.329913096985072

>  <r_i_glide_ligand_efficiency_sa>  (1) 
-0.989739289867878

>  <r_i_glide_ligand_efficiency_ln>  (1) 
-2.07355490826219

>  <r_i_glide_gscore>  (1) 
-8.90765361859696

>  <r_i_glide_lipo>  (1) 
-5.01912877428411

>  <r_i_glide_hbond>  (1) 
-0.199116218874184

>  <r_i_glide_metal>  (1) 
-0

>  <r_i_glide_rewards>  (1) 
-2.18874869246818

>  <r_i_glide_evdw>  (1) 
-24.0698432922363

>  <r_i_glide_ecoul>  (1) 
-5.43249368667603

>  <r_i_glide_erotb>  (1) 
0.51770628464274

>  <r_i_glide_esite>  (1) 
0

>  <r_i_glide_emodel>  (1) 
-36.8496171418474

>  <r_i_glide_energy>  (1) 
-29.5023369789124

>  <r_i_glide_einternal>  (1) 
7.23580360412598

>  <i_i_glide_confnum>  (1) 
71

>  <i_i_glide_posenum>  (1) 
188

>  <r_i_glide_eff_state_penalty>  (1) 
0

$$$$
