BDB50202105-26-0000
     RDKit          3D

 57 61  0  0  1  0  0  0  0  0999 V2000
   35.0915   34.8075   94.5459 N   0  0  0  0  0  0  0  0  0  0  0  0
   34.9570   34.6022   95.9810 C   0  0  0  0  0  0  0  0  0  0  0  0
   35.9136   33.4551   96.3417 C   0  0  0  0  0  0  0  0  0  0  0  0
   37.3251   33.8323   96.1475 N   0  0  0  0  0  0  0  0  0  0  0  0
   37.4981   34.2474   94.7401 C   0  0  0  0  0  0  0  0  0  0  0  0
   36.4506   35.2813   94.2575 C   0  0  0  0  0  0  0  0  0  0  0  0
   38.2487   34.0639   97.1683 C   0  0  0  0  0  0  0  0  0  0  0  0
   39.5968   34.2689   96.8816 C   0  0  0  0  0  0  0  0  0  0  0  0
   40.5153   34.4638   97.9037 C   0  0  0  0  0  0  0  0  0  0  0  0
   40.1383   34.4376   99.2349 C   0  0  0  0  0  0  0  0  0  0  0  0
   38.8124   34.2413   99.5409 C   0  0  0  0  0  0  0  0  0  0  0  0
   35.2389   30.4156   89.6010 C   0  0  0  0  0  0  0  0  0  0  0  0
   35.5896   31.0989   90.9433 C   0  0  1  0  0  0  0  0  0  0  0  0
   34.0722   31.1340   88.8866 C   0  0  2  0  0  0  0  0  0  0  0  0
   35.9589   32.5776   90.6531 C   0  0  0  0  0  0  0  0  0  0  0  0
   34.4650   32.6122   88.6692 C   0  0  0  0  0  0  0  0  0  0  0  0
   34.7862   33.3670   89.9910 C   0  0  1  0  0  0  0  0  0  0  0  0
   32.8494   31.1214   89.8273 C   0  0  0  0  0  0  0  0  0  0  0  0
   33.1079   31.8307   91.1882 C   0  0  1  0  0  0  0  0  0  0  0  0
   34.3204   31.0839   91.8396 C   0  0  0  0  0  0  0  0  0  0  0  0
   33.5449   33.3113   90.9479 C   0  0  1  0  0  0  0  0  0  0  0  0
   33.8341   33.9316   92.2437 N   0  0  0  0  0  0  0  0  0  0  0  0
   33.7154   35.2322   92.5557 C   0  0  0  0  0  0  0  0  0  0  0  0
   33.3162   36.0638   91.7523 O   0  0  0  0  0  0  0  0  0  0  0  0
   34.0516   35.6799   93.9892 C   0  0  0  0  0  0  0  0  0  0  0  0
   41.2941   34.5869  100.5112 Cl  0  0  0  0  0  0  0  0  0  0  0  0
   37.8786   34.0638   98.5182 C   0  0  0  0  0  0  0  0  0  0  0  0
   35.1971   35.5098   96.5391 H   0  0  0  0  0  0  0  0  0  0  0  0
   33.9345   34.3243   96.2395 H   0  0  0  0  0  0  0  0  0  0  0  0
   35.7006   32.5626   95.7499 H   0  0  0  0  0  0  0  0  0  0  0  0
   35.6904   33.1603   97.3523 H   0  0  0  0  0  0  0  0  0  0  0  0
   37.4747   33.3522   94.1173 H   0  0  0  0  0  0  0  0  0  0  0  0
   38.4741   34.6953   94.5691 H   0  0  0  0  0  0  0  0  0  0  0  0
   36.5671   35.4363   93.1838 H   0  0  0  0  0  0  0  0  0  0  0  0
   36.6300   36.2468   94.7358 H   0  0  0  0  0  0  0  0  0  0  0  0
   39.9754   34.2355   95.8724 H   0  0  0  0  0  0  0  0  0  0  0  0
   41.5404   34.5417   97.6303 H   0  0  0  0  0  0  0  0  0  0  0  0
   38.5154   34.2038  100.5778 H   0  0  0  0  0  0  0  0  0  0  0  0
   36.1155   30.3889   88.9529 H   0  0  0  0  0  0  0  0  0  0  0  0
   34.9811   29.3692   89.7749 H   0  0  0  0  0  0  0  0  0  0  0  0
   36.4191   30.5801   91.4222 H   0  0  0  0  0  0  0  0  0  0  0  0
   33.8406   30.6487   87.9373 H   0  0  0  0  0  0  0  0  0  0  0  0
   36.2753   33.0679   91.5752 H   0  0  0  0  0  0  0  0  0  0  0  0
   36.8379   32.6153   90.0070 H   0  0  0  0  0  0  0  0  0  0  0  0
   35.3155   32.6736   87.9895 H   0  0  0  0  0  0  0  0  0  0  0  0
   33.6574   33.1324   88.1523 H   0  0  0  0  0  0  0  0  0  0  0  0
   35.0932   34.3916   89.8048 H   0  0  0  0  0  0  0  0  0  0  0  0
   32.0002   31.5930   89.3302 H   0  0  0  0  0  0  0  0  0  0  0  0
   32.5358   30.0910   89.9989 H   0  0  0  0  0  0  0  0  0  0  0  0
   32.2269   31.7828   91.8302 H   0  0  0  0  0  0  0  0  0  0  0  0
   34.0464   30.0633   92.0728 H   0  0  0  0  0  0  0  0  0  0  0  0
   34.5597   31.5084   92.8155 H   0  0  0  0  0  0  0  0  0  0  0  0
   32.7080   33.8468   90.4918 H   0  0  0  0  0  0  0  0  0  0  0  0
   34.2982   33.3542   92.9305 H   0  0  0  0  0  0  0  0  0  0  0  0
   34.3526   36.7297   94.0057 H   0  0  0  0  0  0  0  0  0  0  0  0
   33.1217   35.6105   94.5568 H   0  0  0  0  0  0  0  0  0  0  0  0
   36.8595   33.8844   98.8002 H   0  0  0  0  0  0  0  0  0  0  0  0
  1  2  1  0
  1  6  1  0
  1 25  1  0
  2  3  1  0
  2 28  1  0
  2 29  1  0
  3  4  1  0
  3 30  1  0
  3 31  1  0
  4  7  1  0
  4  5  1  0
  5  6  1  0
  5 32  1  0
  5 33  1  0
  6 34  1  0
  6 35  1  0
  7  8  2  0
  7 27  1  0
  8  9  1  0
  8 36  1  0
  9 10  2  0
  9 37  1  0
 10 11  1  0
 10 26  1  0
 11 27  2  0
 11 38  1  0
 12 13  1  0
 12 14  1  0
 12 39  1  0
 12 40  1  0
 13 15  1  0
 13 20  1  0
 13 41  1  1
 14 16  1  0
 14 18  1  0
 14 42  1  6
 15 17  1  0
 15 43  1  0
 15 44  1  0
 16 17  1  0
 16 45  1  0
 16 46  1  0
 17 21  1  0
 17 47  1  6
 18 19  1  0
 18 48  1  0
 18 49  1  0
 19 21  1  0
 19 20  1  0
 19 50  1  1
 20 51  1  0
 20 52  1  0
 21 22  1  0
 21 53  1  6
 22 23  1  0
 22 54  1  0
 23 24  2  0
 23 25  1  0
 25 55  1  0
 25 56  1  0
 27 57  1  0
M  END
>  <Name>  (1) 
BDB50202105

>  <Target>  (1) 
11-beta-Hydroxysteroid Dehydrogenase 1 (11-beta-HSD1)

>  <Ki_in_nM>  (1) 
5

>  <IC50_in_nM>  (1) 
 210

>  <Kd_from_ITC>  (1) 
false

>  <Uniprot_ID>  (1) 
P28845

>  <source_organism>  (1) 
Homo sapiens

>  <SourceTag>  (1) 
11betaHSD1

>  <s_i_glide_gridfile>  (1) 
11betahsd1_glide-grid

>  <i_i_glide_lignum>  (1) 
27

>  <i_i_glide_rotatable_bonds>  (1) 
5

>  <r_i_docking_score>  (1) 
-8.90765361859696

>  <r_i_glide_ligand_efficiency>  (1) 
-0.329913096985072

>  <r_i_glide_ligand_efficiency_sa>  (1) 
-0.989739289867878

>  <r_i_glide_ligand_efficiency_ln>  (1) 
-2.07355490826219

>  <r_i_glide_gscore>  (1) 
-8.90765361859696

>  <r_i_glide_lipo>  (1) 
-5.01912877428411

>  <r_i_glide_hbond>  (1) 
-0.199116218874184

>  <r_i_glide_metal>  (1) 
-0

>  <r_i_glide_rewards>  (1) 
-2.18874869246818

>  <r_i_glide_evdw>  (1) 
-24.0698432922363

>  <r_i_glide_ecoul>  (1) 
-5.43249368667603

>  <r_i_glide_erotb>  (1) 
0.51770628464274

>  <r_i_glide_esite>  (1) 
0

>  <r_i_glide_emodel>  (1) 
-36.8496171418474

>  <r_i_glide_energy>  (1) 
-29.5023369789124

>  <r_i_glide_einternal>  (1) 
7.23580360412598

>  <i_i_glide_confnum>  (1) 
71

>  <i_i_glide_posenum>  (1) 
188

>  <r_i_glide_eff_state_penalty>  (1) 
0

$$$$
