BDB50195483-29-0000
     RDKit          3D

 45 48  0  0  1  0  0  0  0  0999 V2000
   34.6251   36.8039   94.8622 C   0  0  0  0  0  0  0  0  0  0  0  0
   33.5432   35.8384   95.4134 C   0  0  2  0  0  0  0  0  0  0  0  0
   35.9374   36.0602   94.5014 C   0  0  1  0  0  0  0  0  0  0  0  0
   34.1040   35.1309   96.6669 C   0  0  0  0  0  0  0  0  0  0  0  0
   36.4525   35.3489   95.7780 C   0  0  0  0  0  0  0  0  0  0  0  0
   35.4200   34.3600   96.3546 C   0  0  2  0  0  0  0  0  0  0  0  0
   35.6039   34.9747   93.4380 C   0  0  0  0  0  0  0  0  0  0  0  0
   34.5388   33.9361   93.9332 C   0  0  2  0  0  0  0  0  0  0  0  0
   33.2707   34.7518   94.3439 C   0  0  0  0  0  0  0  0  0  0  0  0
   35.1405   33.3246   95.2496 C   0  0  0  0  0  0  0  0  0  0  0  0
   34.1149   32.1766   90.5482 C   0  0  0  0  0  0  0  0  0  0  0  0
   35.3409   31.5049   90.5316 C   0  0  0  0  0  0  0  0  0  0  0  0
   35.5950   30.5069   89.6039 C   0  0  0  0  0  0  0  0  0  0  0  0
   34.6409   30.2045   88.6202 C   0  0  0  0  0  0  0  0  0  0  0  0
   33.4044   30.8733   88.6281 C   0  0  0  0  0  0  0  0  0  0  0  0
   33.1563   31.8695   89.5762 C   0  0  0  0  0  0  0  0  0  0  0  0
   32.1425   30.4638   87.5108 Cl  0  0  0  0  0  0  0  0  0  0  0  0
   37.0978   29.6637   89.7518 Cl  0  0  0  0  0  0  0  0  0  0  0  0
   34.9260   29.2504   87.6404 N   0  0  0  0  0  0  0  0  0  0  0  0
   33.8332   33.1961   91.6250 C   0  0  0  0  0  0  0  0  0  0  0  0
   33.3176   34.2664   91.3019 O   0  0  0  0  0  0  0  0  0  0  0  0
   34.2155   32.8938   92.9029 N   0  0  0  0  0  0  0  0  0  0  0  0
   34.2859   31.4732   93.3216 C   0  0  0  0  0  0  0  0  0  0  0  0
   34.2412   37.3212   93.9822 H   0  0  0  0  0  0  0  0  0  0  0  0
   34.8310   37.5886   95.5930 H   0  0  0  0  0  0  0  0  0  0  0  0
   32.6269   36.3801   95.6538 H   0  0  0  0  0  0  0  0  0  0  0  0
   36.6881   36.7572   94.1281 H   0  0  0  0  0  0  0  0  0  0  0  0
   34.2824   35.8599   97.4585 H   0  0  0  0  0  0  0  0  0  0  0  0
   33.3213   34.4683   97.0519 H   0  0  0  0  0  0  0  0  0  0  0  0
   37.3915   34.8359   95.5624 H   0  0  0  0  0  0  0  0  0  0  0  0
   36.6918   36.0652   96.5516 H   0  0  0  0  0  0  0  0  0  0  0  0
   35.8046   33.8770   97.2544 H   0  0  0  0  0  0  0  0  0  0  0  0
   36.5155   34.4501   93.1511 H   0  0  0  0  0  0  0  0  0  0  0  0
   35.2666   35.4764   92.5310 H   0  0  0  0  0  0  0  0  0  0  0  0
   32.8190   35.2416   93.4846 H   0  0  0  0  0  0  0  0  0  0  0  0
   32.5152   34.0644   94.7101 H   0  0  0  0  0  0  0  0  0  0  0  0
   34.5156   32.5510   95.6675 H   0  0  0  0  0  0  0  0  0  0  0  0
   36.0747   32.8111   95.0146 H   0  0  0  0  0  0  0  0  0  0  0  0
   36.1018   31.7308   91.2669 H   0  0  0  0  0  0  0  0  0  0  0  0
   32.2010   32.3761   89.5763 H   0  0  0  0  0  0  0  0  0  0  0  0
   35.8228   28.7907   87.7462 H   0  0  0  0  0  0  0  0  0  0  0  0
   34.1512   28.6792   87.3393 H   0  0  0  0  0  0  0  0  0  0  0  0
   33.9151   30.7657   92.5792 H   0  0  0  0  0  0  0  0  0  0  0  0
   35.3126   31.1929   93.5588 H   0  0  0  0  0  0  0  0  0  0  0  0
   33.6744   31.2921   94.1994 H   0  0  0  0  0  0  0  0  0  0  0  0
  1  2  1  0
  1  3  1  0
  1 24  1  0
  1 25  1  0
  2  4  1  0
  2  9  1  0
  2 26  1  1
  3  5  1  0
  3  7  1  0
  3 27  1  6
  4  6  1  0
  4 28  1  0
  4 29  1  0
  5  6  1  0
  5 30  1  0
  5 31  1  0
  6 10  1  0
  6 32  1  1
  7  8  1  0
  7 33  1  0
  7 34  1  0
  8 10  1  0
  8  9  1  0
  8 22  1  6
  9 35  1  0
  9 36  1  0
 10 37  1  0
 10 38  1  0
 11 12  2  0
 11 16  1  0
 11 20  1  0
 12 13  1  0
 12 39  1  0
 13 14  2  0
 13 18  1  0
 14 15  1  0
 14 19  1  0
 15 16  2  0
 15 17  1  0
 16 40  1  0
 19 41  1  0
 19 42  1  0
 20 21  2  0
 20 22  1  0
 22 23  1  0
 23 43  1  0
 23 44  1  0
 23 45  1  0
M  END
>  <Name>  (1) 
BDB50195483

>  <Target>  (1) 
11-beta-Hydroxysteroid Dehydrogenase 1 (11-beta-HSD1)

>  <Ki_in_nM>  (1) 
10

>  <IC50_in_nM>  (1) 
 100

>  <Kd_from_ITC>  (1) 
false

>  <Uniprot_ID>  (1) 
P28845

>  <source_organism>  (1) 
Homo sapiens

>  <SourceTag>  (1) 
11betaHSD1

>  <s_i_glide_gridfile>  (1) 
11betahsd1_glide-grid

>  <i_i_glide_lignum>  (1) 
30

>  <i_i_glide_rotatable_bonds>  (1) 
3

>  <r_i_docking_score>  (1) 
-9.09690479237108

>  <r_i_glide_ligand_efficiency>  (1) 
-0.395517599668308

>  <r_i_glide_ligand_efficiency_sa>  (1) 
-1.12479944047125

>  <r_i_glide_ligand_efficiency_ln>  (1) 
-2.1997140649675

>  <r_i_glide_gscore>  (1) 
-9.09690479237108

>  <r_i_glide_lipo>  (1) 
-4.81795742164663

>  <r_i_glide_hbond>  (1) 
-0.147522776033166

>  <r_i_glide_metal>  (1) 
-0

>  <r_i_glide_rewards>  (1) 
-2.38524235258453

>  <r_i_glide_evdw>  (1) 
-37.6442489624023

>  <r_i_glide_ecoul>  (1) 
-2.15297031402588

>  <r_i_glide_erotb>  (1) 
0.458975753117241

>  <r_i_glide_esite>  (1) 
0

>  <r_i_glide_emodel>  (1) 
-55.5788000004515

>  <r_i_glide_energy>  (1) 
-39.7972192764282

>  <r_i_glide_einternal>  (1) 
7.59593677520752

>  <i_i_glide_confnum>  (1) 
35

>  <i_i_glide_posenum>  (1) 
264

>  <r_i_glide_eff_state_penalty>  (1) 
0

$$$$
