BDB50319665-32-0000
     RDKit          3D

 18 20  0  0  1  0  0  0  0  0999 V2000
   35.1800   30.4796   91.2902 C   0  0  0  0  0  0  0  0  0  0  0  0
   34.7505   30.1859   89.8368 C   0  0  0  0  0  0  0  0  0  0  0  0
   34.7482   31.5944   89.1998 C   0  0  1  0  0  0  0  0  0  0  0  0
   33.5666   32.4222   89.7534 C   0  0  0  0  0  0  0  0  0  0  0  0
   33.9843   32.7189   91.2153 C   0  0  1  0  0  0  0  0  0  0  0  0
   35.3670   32.0149   91.2891 C   0  0  2  0  0  0  0  0  0  0  0  0
   35.9396   32.2508   89.8945 C   0  0  0  0  0  0  0  0  0  0  0  0
   34.2485   34.7393   92.7147 C   0  0  0  0  0  0  0  0  0  0  0  0
   34.4875   33.7287   94.1588 S   0  0  0  0  0  0  0  0  0  0  0  0
   34.6647   35.2274   95.1531 C   0  0  2  0  0  0  0  0  0  0  0  0
   34.4770   36.3973   94.1601 C   0  0  0  0  0  0  0  0  0  0  0  0
   34.2682   35.9949   92.8574 N   0  0  0  0  0  0  0  0  0  0  0  0
   34.5136   37.5727   94.5290 O   0  0  0  0  0  0  0  0  0  0  0  0
   36.0756   35.3101   95.8447 C   0  0  0  0  0  0  0  0  0  0  0  0
   37.2804   35.3180   94.8673 C   0  0  0  0  0  0  0  0  0  0  0  0
   36.3064   34.2329   96.9306 C   0  0  0  0  0  0  0  0  0  0  0  0
   33.4890   35.2818   96.1636 C   0  0  0  0  0  0  0  0  0  0  0  0
   34.0477   34.1601   91.4748 N   0  0  0  0  0  0  0  0  0  0  0  0
  6  1  1  6
  1  2  1  0
  3  2  1  1
  3  4  1  0
  3  7  1  0
  4  5  1  0
  5  6  1  0
  5 18  1  6
  6  7  1  0
  8  9  1  0
  8 12  2  0
  8 18  1  0
  9 10  1  0
 10 11  1  0
 10 14  1  0
 10 17  1  1
 11 12  1  0
 11 13  2  0
 14 15  1  0
 14 16  1  0
M  END
>  <Name>  (1) 
BDB50319665

>  <Target>  (1) 
11-beta-Hydroxysteroid Dehydrogenase 1 (11-beta-HSD1)

>  <Ki_in_nM>  (1) 
12.8

>  <IC50_in_nM>  (1) 
>10000

>  <Kd_from_ITC>  (1) 
false

>  <Uniprot_ID>  (1) 
P28845

>  <source_organism>  (1) 
Homo sapiens

>  <SourceTag>  (1) 
11betaHSD1

>  <s_i_glide_gridfile>  (1) 
11betahsd1_glide-grid

>  <i_i_glide_lignum>  (1) 
33

>  <i_i_glide_rotatable_bonds>  (1) 
3

>  <r_i_docking_score>  (1) 
-7.7988329110472

>  <r_i_glide_ligand_efficiency>  (1) 
-0.433268495058178

>  <r_i_glide_ligand_efficiency_sa>  (1) 
-1.13548467871157

>  <r_i_glide_ligand_efficiency_ln>  (1) 
-2.00464978577385

>  <r_i_glide_gscore>  (1) 
-7.7988329110472

>  <r_i_glide_lipo>  (1) 
-3.20014636415028

>  <r_i_glide_hbond>  (1) 
-0.166420696568726

>  <r_i_glide_metal>  (1) 
-0

>  <r_i_glide_rewards>  (1) 
-2.8714940193325

>  <r_i_glide_evdw>  (1) 
-33.1804161071777

>  <r_i_glide_ecoul>  (1) 
-2.6916229724884

>  <r_i_glide_erotb>  (1) 
0.50199242023646

>  <r_i_glide_esite>  (1) 
0

>  <r_i_glide_emodel>  (1) 
-50.5309765333189

>  <r_i_glide_energy>  (1) 
-35.8720390796661

>  <r_i_glide_einternal>  (1) 
4.16569709777832

>  <i_i_glide_confnum>  (1) 
4

>  <i_i_glide_posenum>  (1) 
357

>  <r_i_glide_eff_state_penalty>  (1) 
0

$$$$
