BDB50174285-18-0000
     RDKit          3D

 24 27  0  0  1  0  0  0  0  0999 V2000
   34.2714   31.4759   92.6255 C   0  0  0  0  0  0  0  0  0  0  0  0
   35.3440   30.7962   91.7428 C   0  0  0  0  0  0  0  0  0  0  0  0
   32.5911   32.5864   90.2676 C   0  0  0  0  0  0  0  0  0  0  0  0
   33.4686   32.2661   89.0428 C   0  0  0  0  0  0  0  0  0  0  0  0
   34.8826   31.7193   89.3357 C   0  0  0  0  0  0  0  0  0  0  0  0
   34.9525   30.4942   90.2757 C   0  0  0  0  0  0  0  0  0  0  0  0
   34.1013   32.8986   92.3185 N   0  0  0  0  0  0  0  0  0  0  0  0
   34.6328   34.0382   92.9203 C   0  0  0  0  0  0  0  0  0  0  0  0
   34.1455   35.1178   92.3645 N   0  0  0  0  0  0  0  0  0  0  0  0
   33.3147   34.7134   91.3523 N   0  0  0  0  0  0  0  0  0  0  0  0
   33.3154   33.4119   91.3148 C   0  0  0  0  0  0  0  0  0  0  0  0
   36.7037   33.1121   94.1353 C   0  0  0  0  0  0  0  0  0  0  0  0
   35.5472   34.1401   94.1386 C   0  0  1  0  0  0  0  0  0  0  0  0
   37.5232   33.2114   95.4396 C   0  0  0  0  0  0  0  0  0  0  0  0
   36.2229   35.5498   94.2614 C   0  0  0  0  0  0  0  0  0  0  0  0
   34.7254   33.8854   95.4172 C   0  0  0  0  0  0  0  0  0  0  0  0
   37.0504   34.3577   96.3730 C   0  0  1  0  0  0  0  0  0  0  0  0
   37.0927   35.6638   95.5408 C   0  0  0  0  0  0  0  0  0  0  0  0
   35.5506   34.1120   96.6974 C   0  0  0  0  0  0  0  0  0  0  0  0
   37.8398   34.4117   97.7064 C   0  0  0  0  0  0  0  0  0  0  0  0
   39.3795   34.4319   97.6200 C   0  0  0  0  0  0  0  0  0  0  0  0
   40.0836   34.4583   98.9923 C   0  0  0  0  0  0  0  0  0  0  0  0
   39.7060   35.6438   99.9040 C   0  0  0  0  0  0  0  0  0  0  0  0
   40.6080   35.7493  101.1409 C   0  0  0  0  0  0  0  0  0  0  0  0
  1  7  1  0
  1  2  1  0
  2  6  1  0
  3 11  1  0
  3  4  1  0
  4  5  1  0
  5  6  1  0
  7  8  1  0
  7 11  1  0
 13  8  1  6
  8  9  2  0
  9 10  1  0
 10 11  2  0
 12 13  1  0
 12 14  1  0
 13 15  1  0
 13 16  1  0
 14 17  1  0
 15 18  1  0
 16 19  1  0
 17 18  1  0
 17 19  1  0
 17 20  1  1
 20 21  1  0
 21 22  1  0
 22 23  1  0
 23 24  1  0
M  END
>  <Name>  (1) 
BDB50174285

>  <Target>  (1) 
11-beta-Hydroxysteroid Dehydrogenase 1 (11-beta-HSD1)

>  <IC50_in_nM>  (1) 
 5

>  <Kd_from_ITC>  (1) 
false

>  <Uniprot_ID>  (1) 
P28845

>  <source_organism>  (1) 
Homo sapiens

>  <SourceTag>  (1) 
11betaHSD1

>  <s_i_glide_gridfile>  (1) 
11betahsd1_glide-grid

>  <i_i_glide_lignum>  (1) 
19

>  <i_i_glide_rotatable_bonds>  (1) 
5

>  <r_i_docking_score>  (1) 
-8.43915261360752

>  <r_i_glide_ligand_efficiency>  (1) 
-0.351631358900313

>  <r_i_glide_ligand_efficiency_sa>  (1) 
-1.01428035148669

>  <r_i_glide_ligand_efficiency_ln>  (1) 
-2.01987646791634

>  <r_i_glide_gscore>  (1) 
-8.43915261360752

>  <r_i_glide_lipo>  (1) 
-4.70778564197519

>  <r_i_glide_hbond>  (1) 
0

>  <r_i_glide_metal>  (1) 
-0

>  <r_i_glide_rewards>  (1) 
-2.83635739390989

>  <r_i_glide_evdw>  (1) 
-29.1971950531006

>  <r_i_glide_ecoul>  (1) 
-0.850306212902069

>  <r_i_glide_erotb>  (1) 
0.692396106867893

>  <r_i_glide_esite>  (1) 
0

>  <r_i_glide_emodel>  (1) 
-45.0362098489981

>  <r_i_glide_energy>  (1) 
-30.0475012660027

>  <r_i_glide_einternal>  (1) 
2.87784862518311

>  <i_i_glide_confnum>  (1) 
44

>  <i_i_glide_posenum>  (1) 
315

>  <r_i_glide_eff_state_penalty>  (1) 
0

$$$$
