BDB50195486-33-0000
     RDKit          3D

 25 26  0  0  1  0  0  0  0  0999 V2000
   33.9586   33.6867   91.6347 C   0  0  0  0  0  0  0  0  0  0  0  0
   34.7676   32.5666   91.8830 C   0  0  0  0  0  0  0  0  0  0  0  0
   34.6358   31.3924   91.1390 C   0  0  0  0  0  0  0  0  0  0  0  0
   33.6883   31.3133   90.1093 C   0  0  0  0  0  0  0  0  0  0  0  0
   32.8947   32.4302   89.8240 C   0  0  0  0  0  0  0  0  0  0  0  0
   33.0526   33.5970   90.5689 C   0  0  0  0  0  0  0  0  0  0  0  0
   35.6858   30.0641   91.4986 Cl  0  0  0  0  0  0  0  0  0  0  0  0
   31.7159   32.4201   88.5528 Cl  0  0  0  0  0  0  0  0  0  0  0  0
   33.5611   30.1438   89.3528 N   0  0  0  0  0  0  0  0  0  0  0  0
   34.1245   35.0253   92.3485 C   0  0  0  0  0  0  0  0  0  0  0  0
   33.7152   36.0364   91.7674 O   0  0  0  0  0  0  0  0  0  0  0  0
   34.8106   35.1304   93.5229 N   0  0  0  0  0  0  0  0  0  0  0  0
   34.7821   34.1138   94.6118 C   0  0  1  0  0  0  0  0  0  0  0  0
   36.2586   33.8446   94.9845 C   0  0  0  0  0  0  0  0  0  0  0  0
   36.9311   35.0783   95.4038 N   0  0  0  0  0  0  0  0  0  0  0  0
   36.9011   36.0502   94.3031 C   0  0  0  0  0  0  0  0  0  0  0  0
   35.4686   36.4323   93.8364 C   0  0  2  0  0  0  0  0  0  0  0  0
   33.9423   34.4637   95.8616 C   0  0  0  0  0  0  0  0  0  0  0  0
   34.7248   37.3867   94.7977 C   0  0  0  0  0  0  0  0  0  0  0  0
   38.3088   34.7780   95.8101 C   0  0  0  0  0  0  0  0  0  0  0  0
   38.4567   34.3701   97.2837 C   0  0  0  0  0  0  0  0  0  0  0  0
   39.7381   34.4641   97.7039 O   0  0  0  0  0  0  0  0  0  0  0  0
   37.4956   34.0640   97.9939 O   0  0  0  0  0  0  0  0  0  0  0  0
   40.1034   34.2129   99.0590 C   0  0  0  0  0  0  0  0  0  0  0  0
   39.6898   35.3519  100.0072 C   0  0  0  0  0  0  0  0  0  0  0  0
  1  6  1  0
  1  2  2  0
  1 10  1  0
  2  3  1  0
  3  7  1  0
  3  4  2  0
  4  9  1  0
  4  5  1  0
  5  8  1  0
  5  6  2  0
 10 11  2  0
 10 12  1  0
 12 13  1  0
 12 17  1  0
 13 14  1  0
 13 18  1  1
 14 15  1  0
 15 16  1  0
 15 20  1  0
 16 17  1  0
 17 19  1  1
 20 21  1  0
 21 22  1  0
 21 23  2  0
 22 24  1  0
 24 25  1  0
M  END
>  <Name>  (1) 
BDB50195486

>  <Target>  (1) 
11-beta-Hydroxysteroid Dehydrogenase 1 (11-beta-HSD1)

>  <Ki_in_nM>  (1) 
13

>  <IC50_in_nM>  (1) 
 490

>  <Kd_from_ITC>  (1) 
false

>  <Uniprot_ID>  (1) 
P28845

>  <source_organism>  (1) 
Homo sapiens

>  <SourceTag>  (1) 
11betaHSD1

>  <s_i_glide_gridfile>  (1) 
11betahsd1_glide-grid

>  <i_i_glide_lignum>  (1) 
34

>  <i_i_glide_rotatable_bonds>  (1) 
6

>  <r_i_docking_score>  (1) 
-8.49111918062196

>  <r_i_glide_ligand_efficiency>  (1) 
-0.339644767224879

>  <r_i_glide_ligand_efficiency_sa>  (1) 
-0.99312732299114

>  <r_i_glide_ligand_efficiency_ln>  (1) 
-2.01264970411572

>  <r_i_glide_gscore>  (1) 
-8.49111918062196

>  <r_i_glide_lipo>  (1) 
-4.1086788614819

>  <r_i_glide_hbond>  (1) 
-0.228706694802329

>  <r_i_glide_metal>  (1) 
-0

>  <r_i_glide_rewards>  (1) 
-2.05445341964326

>  <r_i_glide_evdw>  (1) 
-39.8932037353516

>  <r_i_glide_ecoul>  (1) 
-5.00485849380493

>  <r_i_glide_erotb>  (1) 
0.646108756143842

>  <r_i_glide_esite>  (1) 
0

>  <r_i_glide_emodel>  (1) 
-61.1624940967017

>  <r_i_glide_energy>  (1) 
-44.8980622291565

>  <r_i_glide_einternal>  (1) 
6.54899263381958

>  <i_i_glide_confnum>  (1) 
45

>  <i_i_glide_posenum>  (1) 
380

>  <r_i_glide_eff_state_penalty>  (1) 
0

$$$$
