BDB50248426-1-0000
     RDKit          3D

 34 38  0  0  1  0  0  0  0  0999 V2000
   31.8585   31.1861   89.4299 C   0  0  0  0  0  0  0  0  0  0  0  0
   33.1699   31.6953   90.0190 C   0  0  0  0  0  0  0  0  0  0  0  0
   32.6916   32.1104   88.6210 C   0  0  0  0  0  0  0  0  0  0  0  0
   39.9048   34.8069   99.4291 C   0  0  0  0  0  0  0  0  0  0  0  0
   39.6456   36.0505  100.0224 C   0  0  0  0  0  0  0  0  0  0  0  0
   39.2305   34.9934  102.1571 N   0  0  0  0  0  0  0  0  0  0  0  0
   39.5220   33.7971  101.5849 C   0  0  0  0  0  0  0  0  0  0  0  0
   39.3096   36.1017  101.3782 C   0  0  0  0  0  0  0  0  0  0  0  0
   39.8663   33.6643  100.2377 C   0  0  0  0  0  0  0  0  0  0  0  0
   33.2106   32.6952   91.1881 C   0  0  0  0  0  0  0  0  0  0  0  0
   33.2647   34.0613   90.9237 C   0  0  0  0  0  0  0  0  0  0  0  0
   33.5783   34.9651   91.9256 C   0  0  0  0  0  0  0  0  0  0  0  0
   33.8534   34.5201   93.2076 C   0  0  0  0  0  0  0  0  0  0  0  0
   33.7351   33.1637   93.5128 C   0  0  0  0  0  0  0  0  0  0  0  0
   33.3990   32.2520   92.5049 C   0  0  0  0  0  0  0  0  0  0  0  0
   34.3837   35.7312   94.4143 S   0  0  0  0  0  0  0  0  0  0  0  0
   35.7994   34.9999   95.2274 N   0  0  0  0  0  0  0  0  0  0  0  0
   33.2548   35.9171   95.3297 O   0  0  0  0  0  0  0  0  0  0  0  0
   34.8736   36.8794   93.6434 O   0  0  0  0  0  0  0  0  0  0  0  0
   35.7980   34.7075   96.6973 C   0  0  2  0  0  0  0  0  0  0  0  0
   37.0210   33.8290   97.0498 C   0  0  0  0  0  0  0  0  0  0  0  0
   38.2662   34.4732   96.6374 N   0  0  0  0  0  0  0  0  0  0  0  0
   38.2740   34.6752   95.1824 C   0  0  0  0  0  0  0  0  0  0  0  0
   37.0976   35.5983   94.8110 C   0  0  0  0  0  0  0  0  0  0  0  0
   34.5507   33.9142   97.1042 C   0  0  0  0  0  0  0  0  0  0  0  0
   39.4619   33.7650   97.0816 C   0  0  0  0  0  0  0  0  0  0  0  0
   40.3158   34.6934   97.9614 C   0  0  0  0  0  0  0  0  0  0  0  0
   34.3730   30.7236   89.9454 C   0  0  0  0  0  0  0  0  0  0  0  0
   35.6359   31.4497   90.1147 N   0  0  0  0  0  0  0  0  0  0  0  0
   35.8236   32.5740   89.1866 C   0  0  0  0  0  0  0  0  0  0  0  0
   37.1302   33.3257   89.4996 C   0  0  0  0  0  0  0  0  0  0  0  0
   38.2490   32.4649   89.4707 O   0  0  0  0  0  0  0  0  0  0  0  0
   38.0935   31.3510   90.3437 C   0  0  0  0  0  0  0  0  0  0  0  0
   36.7889   30.5548   90.1297 C   0  0  0  0  0  0  0  0  0  0  0  0
  1  2  1  0
  1  3  1  0
  2  3  1  0
  2 28  1  0
  2 10  1  0
  4 27  1  0
  4  5  2  0
  4  9  1  0
  5  8  1  0
  6  8  2  0
  6  7  1  0
  7  9  2  0
 10 11  2  0
 10 15  1  0
 11 12  1  0
 12 13  2  0
 13 14  1  0
 13 16  1  0
 14 15  2  0
 16 17  1  0
 16 18  2  0
 16 19  2  0
 17 20  1  0
 17 24  1  0
 20 21  1  0
 20 25  1  6
 21 22  1  0
 22 23  1  0
 22 26  1  0
 23 24  1  0
 26 27  1  0
 28 29  1  0
 29 30  1  0
 29 34  1  0
 30 31  1  0
 31 32  1  0
 32 33  1  0
 33 34  1  0
M  END
>  <Name>  (1) 
BDB50248426

>  <Target>  (1) 
11-beta-Hydroxysteroid Dehydrogenase 1 (11-beta-HSD1)

>  <IC50_in_nM>  (1) 
 8

>  <Kd_from_ITC>  (1) 
false

>  <Uniprot_ID>  (1) 
P28845

>  <source_organism>  (1) 
Homo sapiens

>  <SourceTag>  (1) 
11betaHSD1

>  <s_i_glide_gridfile>  (1) 
11betahsd1_glide-grid

>  <i_i_glide_lignum>  (1) 
2

>  <i_i_glide_rotatable_bonds>  (1) 
8

>  <r_i_docking_score>  (1) 
-7.58221598086793

>  <r_i_glide_ligand_efficiency>  (1) 
-0.223006352378469

>  <r_i_glide_ligand_efficiency_sa>  (1) 
-0.722454010075921

>  <r_i_glide_ligand_efficiency_ln>  (1) 
-1.67512418412824

>  <r_i_glide_gscore>  (1) 
-7.58221598086793

>  <r_i_glide_lipo>  (1) 
-5.64668153741159

>  <r_i_glide_hbond>  (1) 
0

>  <r_i_glide_metal>  (1) 
-0

>  <r_i_glide_rewards>  (1) 
-0.358936834055469

>  <r_i_glide_evdw>  (1) 
-42.9584159851074

>  <r_i_glide_ecoul>  (1) 
-0.802574336528778

>  <r_i_glide_erotb>  (1) 
0.691709340333809

>  <r_i_glide_esite>  (1) 
0

>  <r_i_glide_emodel>  (1) 
-40.606391663059

>  <r_i_glide_energy>  (1) 
-43.7609903216362

>  <r_i_glide_einternal>  (1) 
8.43560695648193

>  <i_i_glide_confnum>  (1) 
292

>  <i_i_glide_posenum>  (1) 
55

>  <r_i_glide_eff_state_penalty>  (1) 
0

$$$$
