BDB50294781-0-0000
     RDKit          3D

 59 62  0  0  1  0  0  0  0  0999 V2000
   34.8213   31.3227   88.9025 C   0  0  0  0  0  0  0  0  0  0  0  0
   35.8618   30.7389   89.8873 C   0  0  2  0  0  0  0  0  0  0  0  0
   33.9213   32.3727   89.5870 C   0  0  1  0  0  0  0  0  0  0  0  0
   35.1063   30.1113   91.0781 C   0  0  0  0  0  0  0  0  0  0  0  0
   33.2003   31.6744   90.7753 C   0  0  0  0  0  0  0  0  0  0  0  0
   34.1984   31.1204   91.8466 C   0  0  2  0  0  0  0  0  0  0  0  0
   34.8449   33.4958   90.1422 C   0  0  0  0  0  0  0  0  0  0  0  0
   35.8697   32.9713   91.2009 C   0  0  2  0  0  0  0  0  0  0  0  0
   36.7086   31.8968   90.4556 C   0  0  0  0  0  0  0  0  0  0  0  0
   35.0456   32.3308   92.3759 C   0  0  1  0  0  0  0  0  0  0  0  0
   34.1623   33.3505   92.9663 N   0  0  0  0  0  0  0  0  0  0  0  0
   34.5441   34.3030   93.8336 C   0  0  0  0  0  0  0  0  0  0  0  0
   33.5640   35.4819   93.9741 C   0  0  0  0  0  0  0  0  0  0  0  0
   35.6350   34.2939   94.3992 O   0  0  0  0  0  0  0  0  0  0  0  0
   33.6107   36.4039   95.2412 C   0  0  0  0  0  0  0  0  0  0  0  0
   33.0681   35.6330   96.4808 C   0  0  0  0  0  0  0  0  0  0  0  0
   35.0201   36.9737   95.5107 C   0  0  0  0  0  0  0  0  0  0  0  0
   32.6817   37.5947   94.9318 C   0  0  0  0  0  0  0  0  0  0  0  0
   32.9162   36.4055   97.7997 C   0  0  0  0  0  0  0  0  0  0  0  0
   34.0392   36.8644   98.3839 O   0  0  0  0  0  0  0  0  0  0  0  0
   33.6072   37.5250   99.5393 N   0  0  0  0  0  0  0  0  0  0  0  0
   32.3235   37.2638   99.5828 C   0  0  0  0  0  0  0  0  0  0  0  0
   31.8542   36.5862   98.5522 N   0  0  0  0  0  0  0  0  0  0  0  0
   31.4347   37.7477  100.7289 C   0  0  0  0  0  0  0  0  0  0  0  0
   30.3805   36.6977  101.1439 C   0  0  0  0  0  0  0  0  0  0  0  0
   32.2157   38.2432  101.9659 C   0  0  0  0  0  0  0  0  0  0  0  0
   35.3155   31.7747   88.0439 H   0  0  0  0  0  0  0  0  0  0  0  0
   34.2110   30.5186   88.4897 H   0  0  0  0  0  0  0  0  0  0  0  0
   36.4941   30.0006   89.3898 H   0  0  0  0  0  0  0  0  0  0  0  0
   33.1981   32.7841   88.8808 H   0  0  0  0  0  0  0  0  0  0  0  0
   35.8211   29.6681   91.7739 H   0  0  0  0  0  0  0  0  0  0  0  0
   34.5155   29.2674   90.7169 H   0  0  0  0  0  0  0  0  0  0  0  0
   32.5869   30.8586   90.3909 H   0  0  0  0  0  0  0  0  0  0  0  0
   32.4838   32.3593   91.2299 H   0  0  0  0  0  0  0  0  0  0  0  0
   33.6743   30.6232   92.6642 H   0  0  0  0  0  0  0  0  0  0  0  0
   34.2410   34.3054   90.5524 H   0  0  0  0  0  0  0  0  0  0  0  0
   35.3940   33.9576   89.3220 H   0  0  0  0  0  0  0  0  0  0  0  0
   36.5094   33.7781   91.5615 H   0  0  0  0  0  0  0  0  0  0  0  0
   37.2747   32.3693   89.6512 H   0  0  0  0  0  0  0  0  0  0  0  0
   37.4660   31.5033   91.1328 H   0  0  0  0  0  0  0  0  0  0  0  0
   35.7153   31.9643   93.1579 H   0  0  0  0  0  0  0  0  0  0  0  0
   33.2699   33.4589   92.5124 H   0  0  0  0  0  0  0  0  0  0  0  0
   32.5506   35.0892   93.8631 H   0  0  0  0  0  0  0  0  0  0  0  0
   33.7331   36.0956   93.0884 H   0  0  0  0  0  0  0  0  0  0  0  0
   33.6951   34.7597   96.6642 H   0  0  0  0  0  0  0  0  0  0  0  0
   32.1154   35.2392   96.1526 H   0  0  0  0  0  0  0  0  0  0  0  0
   35.5230   37.2644   94.5883 H   0  0  0  0  0  0  0  0  0  0  0  0
   34.9535   37.8603   96.1383 H   0  0  0  0  0  0  0  0  0  0  0  0
   35.6656   36.2631   96.0294 H   0  0  0  0  0  0  0  0  0  0  0  0
   33.1014   38.2572   94.1764 H   0  0  0  0  0  0  0  0  0  0  0  0
   31.7141   37.2637   94.5569 H   0  0  0  0  0  0  0  0  0  0  0  0
   32.5155   38.1876   95.8261 H   0  0  0  0  0  0  0  0  0  0  0  0
   30.9152   38.6233  100.3438 H   0  0  0  0  0  0  0  0  0  0  0  0
   29.7175   36.4465  100.3150 H   0  0  0  0  0  0  0  0  0  0  0  0
   29.7492   37.0695  101.9522 H   0  0  0  0  0  0  0  0  0  0  0  0
   30.8472   35.7730  101.4845 H   0  0  0  0  0  0  0  0  0  0  0  0
   32.8562   39.0910  101.7194 H   0  0  0  0  0  0  0  0  0  0  0  0
   31.5392   38.5703  102.7564 H   0  0  0  0  0  0  0  0  0  0  0  0
   32.8465   37.4560  102.3789 H   0  0  0  0  0  0  0  0  0  0  0  0
  1  3  1  0
  1  2  1  0
  1 27  1  0
  1 28  1  0
  2  4  1  0
  2  9  1  0
  2 29  1  6
  3  5  1  0
  3  7  1  0
  3 30  1  6
  4  6  1  0
  4 31  1  0
  4 32  1  0
  5  6  1  0
  5 33  1  0
  5 34  1  0
  6 10  1  0
  6 35  1  1
  7  8  1  0
  7 36  1  0
  7 37  1  0
  8 10  1  0
  8  9  1  0
  8 38  1  1
  9 39  1  0
  9 40  1  0
 10 11  1  0
 10 41  1  1
 11 12  1  0
 11 42  1  0
 12 13  1  0
 12 14  2  0
 15 13  1  0
 13 43  1  0
 13 44  1  0
 15 16  1  0
 15 17  1  0
 15 18  1  0
 16 19  1  0
 16 45  1  0
 16 46  1  0
 17 47  1  0
 17 48  1  0
 17 49  1  0
 18 50  1  0
 18 51  1  0
 18 52  1  0
 19 20  1  0
 19 23  2  0
 20 21  1  0
 21 22  2  0
 22 23  1  0
 22 24  1  0
 24 25  1  0
 24 26  1  0
 24 53  1  0
 25 54  1  0
 25 55  1  0
 25 56  1  0
 26 57  1  0
 26 58  1  0
 26 59  1  0
M  END
>  <Name>  (1) 
BDB50294781

>  <Target>  (1) 
11-beta-Hydroxysteroid Dehydrogenase 1 (11-beta-HSD1)

>  <IC50_in_nM>  (1) 
 8

>  <Kd_from_ITC>  (1) 
false

>  <Uniprot_ID>  (1) 
P28845

>  <source_organism>  (1) 
Homo sapiens

>  <SourceTag>  (1) 
11betaHSD1

>  <s_i_glide_gridfile>  (1) 
11betahsd1_glide-grid

>  <i_i_glide_lignum>  (1) 
1

>  <i_i_glide_rotatable_bonds>  (1) 
7

>  <r_i_docking_score>  (1) 
-8.29238018003718

>  <r_i_glide_ligand_efficiency>  (1) 
-0.318937699232199

>  <r_i_glide_ligand_efficiency_sa>  (1) 
-0.944851679016144

>  <r_i_glide_ligand_efficiency_ln>  (1) 
-1.94743827576305

>  <r_i_glide_gscore>  (1) 
-8.29238018003718

>  <r_i_glide_lipo>  (1) 
-4.23220746186064

>  <r_i_glide_hbond>  (1) 
-0.32

>  <r_i_glide_metal>  (1) 
-0

>  <r_i_glide_rewards>  (1) 
-2.57065233891693

>  <r_i_glide_evdw>  (1) 
-28.3454513549805

>  <r_i_glide_ecoul>  (1) 
-2.26934289932251

>  <r_i_glide_erotb>  (1) 
0.741548528389799

>  <r_i_glide_esite>  (1) 
-0.153394905002011

>  <r_i_glide_emodel>  (1) 
-44.8914634082995

>  <r_i_glide_energy>  (1) 
-30.614794254303

>  <r_i_glide_einternal>  (1) 
3.53901934623718

>  <i_i_glide_confnum>  (1) 
10

>  <i_i_glide_posenum>  (1) 
165

>  <r_i_glide_eff_state_penalty>  (1) 
0

$$$$
