BDB50319660-31-0000
     RDKit          3D

 36 38  0  0  1  0  0  0  0  0999 V2000
   34.5141   31.5126   88.1211 C   0  0  0  0  0  0  0  0  0  0  0  0
   33.8511   30.2261   88.6425 C   0  0  0  0  0  0  0  0  0  0  0  0
   32.7202   30.7651   89.5413 C   0  0  1  0  0  0  0  0  0  0  0  0
   33.3079   31.4416   90.8009 C   0  0  0  0  0  0  0  0  0  0  0  0
   33.9569   32.7373   90.2408 C   0  0  1  0  0  0  0  0  0  0  0  0
   33.6282   32.6193   88.7337 C   0  0  2  0  0  0  0  0  0  0  0  0
   32.2428   31.9691   88.7407 C   0  0  0  0  0  0  0  0  0  0  0  0
   33.8570   34.4380   92.0298 C   0  0  0  0  0  0  0  0  0  0  0  0
   34.0469   33.3770   93.4269 S   0  0  0  0  0  0  0  0  0  0  0  0
   34.5551   34.7973   94.3445 C   0  0  0  0  0  0  0  0  0  0  0  0
   34.5601   35.9513   93.4743 C   0  0  0  0  0  0  0  0  0  0  0  0
   34.1152   35.6549   92.2053 N   0  0  0  0  0  0  0  0  0  0  0  0
   34.9153   37.0755   93.8122 O   0  0  0  0  0  0  0  0  0  0  0  0
   34.9106   34.6960   95.8207 C   0  0  0  0  0  0  0  0  0  0  0  0
   33.9834   35.5557   96.6961 C   0  0  0  0  0  0  0  0  0  0  0  0
   36.3916   35.0145   96.0919 C   0  0  0  0  0  0  0  0  0  0  0  0
   33.4120   33.9644   90.8145 N   0  0  0  0  0  0  0  0  0  0  0  0
   34.5152   31.5378   87.0320 H   0  0  0  0  0  0  0  0  0  0  0  0
   35.5513   31.5968   88.4474 H   0  0  0  0  0  0  0  0  0  0  0  0
   34.5438   29.5776   89.1813 H   0  0  0  0  0  0  0  0  0  0  0  0
   33.4416   29.6625   87.8054 H   0  0  0  0  0  0  0  0  0  0  0  0
   31.9507   30.0237   89.7518 H   0  0  0  0  0  0  0  0  0  0  0  0
   34.0349   30.8051   91.3074 H   0  0  0  0  0  0  0  0  0  0  0  0
   32.5190   31.6646   91.5214 H   0  0  0  0  0  0  0  0  0  0  0  0
   35.0402   32.7133   90.3843 H   0  0  0  0  0  0  0  0  0  0  0  0
   33.6913   33.5635   88.1906 H   0  0  0  0  0  0  0  0  0  0  0  0
   31.4828   32.5600   89.2553 H   0  0  0  0  0  0  0  0  0  0  0  0
   31.8628   31.7047   87.7523 H   0  0  0  0  0  0  0  0  0  0  0  0
   34.7495   33.6587   96.1166 H   0  0  0  0  0  0  0  0  0  0  0  0
   32.9372   35.2850   96.5463 H   0  0  0  0  0  0  0  0  0  0  0  0
   34.0854   36.6173   96.4670 H   0  0  0  0  0  0  0  0  0  0  0  0
   34.2088   35.4236   97.7522 H   0  0  0  0  0  0  0  0  0  0  0  0
   37.0451   34.3368   95.5419 H   0  0  0  0  0  0  0  0  0  0  0  0
   36.6421   36.0322   95.7910 H   0  0  0  0  0  0  0  0  0  0  0  0
   36.6320   34.9141   97.1507 H   0  0  0  0  0  0  0  0  0  0  0  0
   33.3617   34.6954   90.1182 H   0  0  0  0  0  0  0  0  0  0  0  0
  1  2  1  0
  1  6  1  0
  1 18  1  0
  1 19  1  0
  2  3  1  0
  2 20  1  0
  2 21  1  0
  3  4  1  0
  3  7  1  0
  3 22  1  1
  4  5  1  0
  4 23  1  0
  4 24  1  0
  5  6  1  0
  5 17  1  0
  5 25  1  6
  6  7  1  0
  6 26  1  6
  7 27  1  0
  7 28  1  0
  8  9  1  0
  8 12  2  0
  8 17  1  0
  9 10  1  0
 10 11  1  0
 10 14  1  0
 11 12  1  0
 11 13  2  0
 14 15  1  0
 14 16  1  0
 14 29  1  0
 15 30  1  0
 15 31  1  0
 15 32  1  0
 16 33  1  0
 16 34  1  0
 16 35  1  0
 17 36  1  0
M  CHG  1  10  -1
M  END
>  <Name>  (1) 
BDB50319660

>  <Target>  (1) 
11-beta-Hydroxysteroid Dehydrogenase 1 (11-beta-HSD1)

>  <Ki_in_nM>  (1) 
12.2

>  <IC50_in_nM>  (1) 
 15.3

>  <Kd_from_ITC>  (1) 
false

>  <Uniprot_ID>  (1) 
P28845

>  <source_organism>  (1) 
Homo sapiens

>  <SourceTag>  (1) 
11betaHSD1

>  <s_i_glide_gridfile>  (1) 
11betahsd1_glide-grid

>  <i_i_glide_lignum>  (1) 
32

>  <i_i_glide_rotatable_bonds>  (1) 
3

>  <r_i_docking_score>  (1) 
-7.97812964449108

>  <r_i_glide_ligand_efficiency>  (1) 
-0.469301743793593

>  <r_i_glide_ligand_efficiency_sa>  (1) 
-1.20670693314065

>  <r_i_glide_ligand_efficiency_ln>  (1) 
-2.08131636003563

>  <r_i_glide_gscore>  (1) 
-7.97812964449108

>  <r_i_glide_lipo>  (1) 
-3.41916521478071

>  <r_i_glide_hbond>  (1) 
-0.320485817042378

>  <r_i_glide_metal>  (1) 
-0

>  <r_i_glide_rewards>  (1) 
-2.25197960047466

>  <r_i_glide_evdw>  (1) 
-29.1543083190918

>  <r_i_glide_ecoul>  (1) 
-7.22376441955566

>  <r_i_glide_erotb>  (1) 
0.554781066694602

>  <r_i_glide_esite>  (1) 
0

>  <r_i_glide_emodel>  (1) 
-56.2909895629495

>  <r_i_glide_energy>  (1) 
-36.3780727386475

>  <r_i_glide_einternal>  (1) 
5.4903359413147

>  <i_i_glide_confnum>  (1) 
2

>  <i_i_glide_posenum>  (1) 
229

>  <r_i_glide_eff_state_penalty>  (1) 
0

$$$$
