BDB50297909-8-0000
     RDKit          3D

 56 58  0  0  1  0  0  0  0  0999 V2000
   39.4297   38.6566  101.0614 C   0  0  0  0  0  0  0  0  0  0  0  0
   38.4056   38.8114  101.9956 C   0  0  0  0  0  0  0  0  0  0  0  0
   37.9539   37.7089  102.7227 C   0  0  0  0  0  0  0  0  0  0  0  0
   38.5155   36.4497  102.5040 C   0  0  0  0  0  0  0  0  0  0  0  0
   39.5248   36.2888  101.5512 C   0  0  0  0  0  0  0  0  0  0  0  0
   39.9959   37.3998  100.8505 C   0  0  0  0  0  0  0  0  0  0  0  0
   40.2074   34.6694  101.2215 S   0  0  0  0  0  0  0  0  0  0  0  0
   39.3139   34.0645   99.8357 N   0  0  0  0  0  0  0  0  0  0  0  0
   39.8543   33.8120  102.3582 O   0  0  0  0  0  0  0  0  0  0  0  0
   41.6052   34.8505  100.8146 O   0  0  0  0  0  0  0  0  0  0  0  0
   39.7207   34.3622   98.4446 C   0  0  0  0  0  0  0  0  0  0  0  0
   38.5837   34.3863   97.4199 C   0  0  0  0  0  0  0  0  0  0  0  0
   37.2611   34.0638   97.7501 C   0  0  0  0  0  0  0  0  0  0  0  0
   36.2448   34.1813   96.8053 C   0  0  0  0  0  0  0  0  0  0  0  0
   36.5513   34.5930   95.5061 C   0  0  0  0  0  0  0  0  0  0  0  0
   37.8738   34.8689   95.1588 C   0  0  0  0  0  0  0  0  0  0  0  0
   38.8857   34.7483   96.1063 C   0  0  0  0  0  0  0  0  0  0  0  0
   35.4730   34.7310   94.4660 C   0  0  0  0  0  0  0  0  0  0  0  0
   35.0606   35.8631   94.2007 O   0  0  0  0  0  0  0  0  0  0  0  0
   35.0651   33.6127   93.7988 N   0  0  0  0  0  0  0  0  0  0  0  0
   39.9966   40.0139  100.1627 Cl  0  0  0  0  0  0  0  0  0  0  0  0
   34.2629   33.7384   92.5500 C   0  0  0  0  0  0  0  0  0  0  0  0
   35.0739   34.3098   91.3566 C   0  0  0  0  0  0  0  0  0  0  0  0
   36.2073   33.4181   90.8120 C   0  0  0  0  0  0  0  0  0  0  0  0
   33.3538   32.5339   92.1782 C   0  0  0  0  0  0  0  0  0  0  0  0
   35.7951   32.3464   89.7834 C   0  0  0  0  0  0  0  0  0  0  0  0
   33.9884   31.3548   91.4035 C   0  0  0  0  0  0  0  0  0  0  0  0
   34.4127   31.6837   89.9592 C   0  0  0  0  0  0  0  0  0  0  0  0
   35.4784   32.2586   94.2007 C   0  0  0  0  0  0  0  0  0  0  0  0
   37.9667   39.7849  102.1610 H   0  0  0  0  0  0  0  0  0  0  0  0
   37.1662   37.8289  103.4518 H   0  0  0  0  0  0  0  0  0  0  0  0
   38.1545   35.6011  103.0675 H   0  0  0  0  0  0  0  0  0  0  0  0
   40.8080   37.2910  100.1520 H   0  0  0  0  0  0  0  0  0  0  0  0
   38.6669   33.2900   99.9946 H   0  0  0  0  0  0  0  0  0  0  0  0
   40.3884   33.5566   98.1517 H   0  0  0  0  0  0  0  0  0  0  0  0
   40.3339   35.2626   98.4237 H   0  0  0  0  0  0  0  0  0  0  0  0
   37.0031   33.7228   98.7391 H   0  0  0  0  0  0  0  0  0  0  0  0
   35.2271   33.9486   97.0883 H   0  0  0  0  0  0  0  0  0  0  0  0
   38.1176   35.1795   94.1534 H   0  0  0  0  0  0  0  0  0  0  0  0
   39.9042   34.9674   95.8227 H   0  0  0  0  0  0  0  0  0  0  0  0
   33.5355   34.5167   92.7933 H   0  0  0  0  0  0  0  0  0  0  0  0
   35.5017   35.2651   91.6580 H   0  0  0  0  0  0  0  0  0  0  0  0
   34.3872   34.5652   90.5516 H   0  0  0  0  0  0  0  0  0  0  0  0
   36.7306   32.9445   91.6421 H   0  0  0  0  0  0  0  0  0  0  0  0
   36.9593   34.0564   90.3445 H   0  0  0  0  0  0  0  0  0  0  0  0
   32.5344   32.9172   91.5675 H   0  0  0  0  0  0  0  0  0  0  0  0
   32.8537   32.1622   93.0741 H   0  0  0  0  0  0  0  0  0  0  0  0
   36.5627   31.5698   89.7769 H   0  0  0  0  0  0  0  0  0  0  0  0
   35.8285   32.7884   88.7852 H   0  0  0  0  0  0  0  0  0  0  0  0
   34.8216   30.9125   91.9468 H   0  0  0  0  0  0  0  0  0  0  0  0
   33.2409   30.5662   91.3557 H   0  0  0  0  0  0  0  0  0  0  0  0
   34.4103   30.7617   89.3750 H   0  0  0  0  0  0  0  0  0  0  0  0
   33.6489   32.3106   89.4958 H   0  0  0  0  0  0  0  0  0  0  0  0
   36.0381   32.2097   95.1329 H   0  0  0  0  0  0  0  0  0  0  0  0
   34.5991   31.6337   94.3406 H   0  0  0  0  0  0  0  0  0  0  0  0
   36.1086   31.8108   93.4359 H   0  0  0  0  0  0  0  0  0  0  0  0
  1 21  1  0
  1  6  2  0
  1  2  1  0
  2  3  2  0
  2 30  1  0
  3  4  1  0
  3 31  1  0
  4  5  2  0
  4 32  1  0
  5  7  1  0
  5  6  1  0
  6 33  1  0
  7  8  1  0
  7  9  2  0
  7 10  2  0
  8 11  1  0
  8 34  1  0
 11 12  1  0
 11 35  1  0
 11 36  1  0
 12 17  1  0
 12 13  2  0
 13 14  1  0
 13 37  1  0
 14 15  2  0
 14 38  1  0
 15 16  1  0
 15 18  1  0
 16 17  2  0
 16 39  1  0
 17 40  1  0
 18 19  2  0
 18 20  1  0
 20 22  1  0
 20 29  1  0
 22 23  1  0
 22 25  1  0
 22 41  1  0
 23 24  1  0
 23 42  1  0
 23 43  1  0
 24 26  1  0
 24 44  1  0
 24 45  1  0
 25 27  1  0
 25 46  1  0
 25 47  1  0
 26 28  1  0
 26 48  1  0
 26 49  1  0
 27 28  1  0
 27 50  1  0
 27 51  1  0
 28 52  1  0
 28 53  1  0
 29 54  1  0
 29 55  1  0
 29 56  1  0
M  END
>  <Name>  (1) 
BDB50297909

>  <Target>  (1) 
11-beta-Hydroxysteroid Dehydrogenase 1 (11-beta-HSD1)

>  <IC50_in_nM>  (1) 
 638

>  <Kd_from_ITC>  (1) 
false

>  <Uniprot_ID>  (1) 
P28845

>  <source_organism>  (1) 
Homo sapiens

>  <SourceTag>  (1) 
11betaHSD1

>  <s_i_glide_gridfile>  (1) 
11betahsd1_glide-grid

>  <i_i_glide_lignum>  (1) 
9

>  <i_i_glide_rotatable_bonds>  (1) 
7

>  <r_i_docking_score>  (1) 
-7.07362401110055

>  <r_i_glide_ligand_efficiency>  (1) 
-0.243918069348295

>  <r_i_glide_ligand_efficiency_sa>  (1) 
-0.74939358770643

>  <r_i_glide_ligand_efficiency_ln>  (1) 
-1.61968052691371

>  <r_i_glide_gscore>  (1) 
-7.07362401110055

>  <r_i_glide_lipo>  (1) 
-4.04611745897998

>  <r_i_glide_hbond>  (1) 
0

>  <r_i_glide_metal>  (1) 
-0

>  <r_i_glide_rewards>  (1) 
-1.9201396922825

>  <r_i_glide_evdw>  (1) 
-36.1955642700195

>  <r_i_glide_ecoul>  (1) 
0.471414089202881

>  <r_i_glide_erotb>  (1) 
0.631699240282471

>  <r_i_glide_esite>  (1) 
0

>  <r_i_glide_emodel>  (1) 
-45.9496561898986

>  <r_i_glide_energy>  (1) 
-35.7241501808167

>  <r_i_glide_einternal>  (1) 
11.7690954208374

>  <i_i_glide_confnum>  (1) 
423

>  <i_i_glide_posenum>  (1) 
354

>  <r_i_glide_eff_state_penalty>  (1) 
0

$$$$
