BDB50224219-27-0000
     RDKit          3D

 29 30  0  0  1  0  0  0  0  0999 V2000
   34.5155   29.9475   88.1176 C   0  0  0  0  0  0  0  0  0  0  0  0
   33.4654   30.7544   88.5517 C   0  0  0  0  0  0  0  0  0  0  0  0
   33.4809   31.2984   89.8366 C   0  0  0  0  0  0  0  0  0  0  0  0
   34.5703   31.0511   90.6951 C   0  0  0  0  0  0  0  0  0  0  0  0
   35.6016   30.2148   90.2567 C   0  0  0  0  0  0  0  0  0  0  0  0
   35.5754   29.6640   88.9760 C   0  0  0  0  0  0  0  0  0  0  0  0
   34.6510   31.5409   92.0111 N   0  0  0  0  0  0  0  0  0  0  0  0
   34.4942   32.8456   92.4507 C   0  0  0  0  0  0  0  0  0  0  0  0
   34.7721   33.2023   94.1518 S   0  0  0  0  0  0  0  0  0  0  0  0
   34.3253   34.8874   93.8194 C   0  0  0  0  0  0  0  0  0  0  0  0
   34.0431   35.0155   92.4072 C   0  0  0  0  0  0  0  0  0  0  0  0
   34.1730   33.8269   91.7294 N   0  0  0  0  0  0  0  0  0  0  0  0
   33.7154   36.0638   91.8562 O   0  0  0  0  0  0  0  0  0  0  0  0
   34.2633   35.9656   94.9038 C   0  0  0  0  0  0  0  0  0  0  0  0
   34.7978   35.5302   96.2829 C   0  0  0  0  0  0  0  0  0  0  0  0
   32.8593   36.5875   95.0355 C   0  0  0  0  0  0  0  0  0  0  0  0
   32.4273   32.0527   90.2272 F   0  0  0  0  0  0  0  0  0  0  0  0
   34.5005   29.5265   87.1230 H   0  0  0  0  0  0  0  0  0  0  0  0
   32.6332   30.9553   87.8938 H   0  0  0  0  0  0  0  0  0  0  0  0
   36.4354   29.9945   90.9077 H   0  0  0  0  0  0  0  0  0  0  0  0
   36.3829   29.0262   88.6467 H   0  0  0  0  0  0  0  0  0  0  0  0
   35.0081   30.8789   92.6829 H   0  0  0  0  0  0  0  0  0  0  0  0
   34.9262   36.7609   94.5573 H   0  0  0  0  0  0  0  0  0  0  0  0
   35.8331   35.1938   96.2169 H   0  0  0  0  0  0  0  0  0  0  0  0
   34.2064   34.7149   96.7019 H   0  0  0  0  0  0  0  0  0  0  0  0
   34.7726   36.3543   96.9962 H   0  0  0  0  0  0  0  0  0  0  0  0
   32.5456   37.0712   94.1095 H   0  0  0  0  0  0  0  0  0  0  0  0
   32.1153   35.8278   95.2776 H   0  0  0  0  0  0  0  0  0  0  0  0
   32.8291   37.3458   95.8184 H   0  0  0  0  0  0  0  0  0  0  0  0
  1  6  2  0
  1  2  1  0
  1 18  1  0
  2  3  2  0
  2 19  1  0
  3  4  1  0
  3 17  1  0
  4  5  2  0
  4  7  1  0
  5  6  1  0
  5 20  1  0
  6 21  1  0
  7  8  1  0
  7 22  1  0
  8  9  1  0
  8 12  2  0
  9 10  1  0
 10 11  1  0
 10 14  1  0
 11 12  1  0
 11 13  2  0
 14 15  1  0
 14 16  1  0
 14 23  1  0
 15 24  1  0
 15 25  1  0
 15 26  1  0
 16 27  1  0
 16 28  1  0
 16 29  1  0
M  CHG  1  10  -1
M  END
>  <Name>  (1) 
BDB50224219

>  <Target>  (1) 
11-beta-Hydroxysteroid Dehydrogenase 1 (11-beta-HSD1)

>  <Ki_in_nM>  (1) 
7

>  <IC50_in_nM>  (1) 
 15

>  <Kd_from_ITC>  (1) 
false

>  <Uniprot_ID>  (1) 
P28845

>  <source_organism>  (1) 
Homo sapiens

>  <SourceTag>  (1) 
11betaHSD1

>  <s_i_glide_gridfile>  (1) 
11betahsd1_glide-grid

>  <i_i_glide_lignum>  (1) 
28

>  <i_i_glide_rotatable_bonds>  (1) 
3

>  <r_i_docking_score>  (1) 
-8.42783474284278

>  <r_i_glide_ligand_efficiency>  (1) 
-0.495754984873105

>  <r_i_glide_ligand_efficiency_sa>  (1) 
-1.27472566487741

>  <r_i_glide_ligand_efficiency_ln>  (1) 
-2.19863440575542

>  <r_i_glide_gscore>  (1) 
-8.42783474284278

>  <r_i_glide_lipo>  (1) 
-3.26465481507933

>  <r_i_glide_hbond>  (1) 
-0.24542679092881

>  <r_i_glide_metal>  (1) 
-0

>  <r_i_glide_rewards>  (1) 
-2.54001691987046

>  <r_i_glide_evdw>  (1) 
-30.5545711517334

>  <r_i_glide_ecoul>  (1) 
-9.36697196960449

>  <r_i_glide_erotb>  (1) 
0.555038136063166

>  <r_i_glide_esite>  (1) 
0

>  <r_i_glide_emodel>  (1) 
-62.8617754450697

>  <r_i_glide_energy>  (1) 
-39.9215431213379

>  <r_i_glide_einternal>  (1) 
3.35353493690491

>  <i_i_glide_confnum>  (1) 
3

>  <i_i_glide_posenum>  (1) 
329

>  <r_i_glide_eff_state_penalty>  (1) 
0

$$$$
