BDB50210892-37-0000
     RDKit          3D

 28 31  0  0  1  0  0  0  0  0999 V2000
   35.8950   35.2632   96.9738 C   0  0  0  0  0  0  0  0  0  0  0  0
   34.7054   35.8804   97.3651 C   0  0  0  0  0  0  0  0  0  0  0  0
   33.8057   36.3734   96.4356 C   0  0  0  0  0  0  0  0  0  0  0  0
   36.1805   35.1133   95.6241 C   0  0  0  0  0  0  0  0  0  0  0  0
   35.1980   35.4774   94.7019 C   0  0  0  0  0  0  0  0  0  0  0  0
   34.0727   36.1375   95.1006 C   0  0  0  0  0  0  0  0  0  0  0  0
   33.3727   36.4431   93.9800 N   0  0  0  0  0  0  0  0  0  0  0  0
   33.9754   35.9466   92.8921 C   0  0  0  0  0  0  0  0  0  0  0  0
   35.0924   35.2993   93.3406 N   0  0  0  0  0  0  0  0  0  0  0  0
   33.5459   36.0638   91.7524 O   0  0  0  0  0  0  0  0  0  0  0  0
   35.9577   34.3725   92.5676 C   0  0  0  0  0  0  0  0  0  0  0  0
   36.1164   33.0022   93.2888 C   0  0  0  0  0  0  0  0  0  0  0  0
   34.7224   32.3445   93.4461 C   0  0  0  0  0  0  0  0  0  0  0  0
   34.3502   31.9941   92.0655 N   0  0  0  0  0  0  0  0  0  0  0  0
   34.1513   33.1495   91.1649 C   0  0  0  0  0  0  0  0  0  0  0  0
   35.4772   33.9622   91.1482 C   0  0  0  0  0  0  0  0  0  0  0  0
   34.7625   30.7797   91.6228 C   0  0  0  0  0  0  0  0  0  0  0  0
   34.5283   30.4005   90.1927 C   0  0  0  0  0  0  0  0  0  0  0  0
   35.3163   29.9872   92.3641 O   0  0  0  0  0  0  0  0  0  0  0  0
   33.2772   30.6147   89.6421 C   0  0  0  0  0  0  0  0  0  0  0  0
   33.0551   30.4932   88.2740 C   0  0  0  0  0  0  0  0  0  0  0  0
   34.0956   30.0286   87.4530 C   0  0  0  0  0  0  0  0  0  0  0  0
   35.3154   29.6621   88.0349 C   0  0  0  0  0  0  0  0  0  0  0  0
   35.5414   29.8615   89.3968 C   0  0  0  0  0  0  0  0  0  0  0  0
   33.9235   29.8931   85.9470 C   0  0  0  0  0  0  0  0  0  0  0  0
   31.8415   30.8746   87.7517 O   0  0  0  0  0  0  0  0  0  0  0  0
   31.3184   32.0843   88.3049 C   0  0  0  0  0  0  0  0  0  0  0  0
   32.6312   37.1850   96.8881 C   0  0  0  0  0  0  0  0  0  0  0  0
  1  2  2  0
  1  4  1  0
  2  3  1  0
  3  6  2  0
  3 28  1  0
  4  5  2  0
  5  9  1  0
  5  6  1  0
  6  7  1  0
  7  8  1  0
  8  9  1  0
  8 10  2  0
  9 11  1  0
 11 16  1  0
 11 12  1  0
 12 13  1  0
 13 14  1  0
 14 15  1  0
 14 17  1  0
 15 16  1  0
 17 18  1  0
 17 19  2  0
 18 20  2  0
 18 24  1  0
 20 21  1  0
 21 22  2  0
 21 26  1  0
 22 23  1  0
 22 25  1  0
 23 24  2  0
 26 27  1  0
M  END
>  <Name>  (1) 
BDB50210892

>  <Target>  (1) 
11-beta-Hydroxysteroid Dehydrogenase 1 (11-beta-HSD1)

>  <Ki_in_nM>  (1) 
140

>  <Kd_from_ITC>  (1) 
false

>  <Uniprot_ID>  (1) 
P28845

>  <source_organism>  (1) 
Homo sapiens

>  <SourceTag>  (1) 
11betaHSD1

>  <s_i_glide_gridfile>  (1) 
11betahsd1_glide-grid

>  <i_i_glide_lignum>  (1) 
38

>  <i_i_glide_rotatable_bonds>  (1) 
4

>  <r_i_docking_score>  (1) 
-9.34374881147375

>  <r_i_glide_ligand_efficiency>  (1) 
-0.333705314695491

>  <r_i_glide_ligand_efficiency_sa>  (1) 
-1.01332587733509

>  <r_i_glide_ligand_efficiency_ln>  (1) 
-2.15681157007425

>  <r_i_glide_gscore>  (1) 
-9.34374881147375

>  <r_i_glide_lipo>  (1) 
-4.50128113879301

>  <r_i_glide_hbond>  (1) 
-0.222379539419497

>  <r_i_glide_metal>  (1) 
-0

>  <r_i_glide_rewards>  (1) 
-2.77681663845649

>  <r_i_glide_evdw>  (1) 
-31.7918090820312

>  <r_i_glide_ecoul>  (1) 
-4.38456249237061

>  <r_i_glide_erotb>  (1) 
0.404003333152407

>  <r_i_glide_esite>  (1) 
0

>  <r_i_glide_emodel>  (1) 
-32.7549022141083

>  <r_i_glide_energy>  (1) 
-36.1763715744019

>  <r_i_glide_einternal>  (1) 
9.37105369567871

>  <i_i_glide_confnum>  (1) 
49

>  <i_i_glide_posenum>  (1) 
132

>  <r_i_glide_eff_state_penalty>  (1) 
0

$$$$
