BDB50174290-2-0000
     RDKit          3D

 61 66  0  0  1  0  0  0  0  0999 V2000
   35.0118   32.7540   92.3252 C   0  0  0  0  0  0  0  0  0  0  0  0
   33.9121   33.2447   92.9478 O   0  0  0  0  0  0  0  0  0  0  0  0
   34.3969   33.7590   94.1528 N   0  0  0  0  0  0  0  0  0  0  0  0
   35.6910   33.4986   94.1092 C   0  0  0  0  0  0  0  0  0  0  0  0
   36.1154   32.9586   92.9895 N   0  0  0  0  0  0  0  0  0  0  0  0
   36.6359   33.7346   95.2551 C   0  0  0  0  0  0  0  0  0  0  0  0
   36.1499   34.0810   96.5179 C   0  0  0  0  0  0  0  0  0  0  0  0
   37.0319   34.2321   97.5811 C   0  0  0  0  0  0  0  0  0  0  0  0
   38.4008   34.0638   97.4021 C   0  0  0  0  0  0  0  0  0  0  0  0
   38.9031   33.7390   96.1515 C   0  0  0  0  0  0  0  0  0  0  0  0
   38.0198   33.5614   95.0933 C   0  0  0  0  0  0  0  0  0  0  0  0
   39.2429   34.2203   98.4478 F   0  0  0  0  0  0  0  0  0  0  0  0
   34.7663   29.6638   87.4423 C   0  0  0  0  0  0  0  0  0  0  0  0
   34.8700   32.0535   88.4655 C   0  0  0  0  0  0  0  0  0  0  0  0
   34.7799   30.5078   88.7410 C   0  0  1  0  0  0  0  0  0  0  0  0
   34.9386   32.8937   89.7749 C   0  0  0  0  0  0  0  0  0  0  0  0
   33.4776   30.3397   89.5794 C   0  0  0  0  0  0  0  0  0  0  0  0
   35.9697   30.0994   89.6606 C   0  0  0  0  0  0  0  0  0  0  0  0
   34.8813   31.9713   91.0207 C   0  0  2  0  0  0  0  0  0  0  0  0
   33.5607   31.1419   90.9250 C   0  0  0  0  0  0  0  0  0  0  0  0
   36.0723   30.9783   90.9115 C   0  0  0  0  0  0  0  0  0  0  0  0
   35.0604   28.3127   87.3165 N   0  0  0  0  0  0  0  0  0  0  0  0
   34.4268   30.1317   86.2693 N   0  0  0  0  0  0  0  0  0  0  0  0
   34.5154   29.0982   85.3523 N   0  0  0  0  0  0  0  0  0  0  0  0
   34.9154   28.0186   85.9746 C   0  0  0  0  0  0  0  0  0  0  0  0
   35.2447   27.3385   88.3779 C   0  0  0  0  0  0  0  0  0  0  0  0
   34.9639   26.6297   85.3688 C   0  0  0  0  0  0  0  0  0  0  0  0
   33.9178   26.1497   84.5523 C   0  0  0  0  0  0  0  0  0  0  0  0
   33.9476   24.8124   84.1179 C   0  0  0  0  0  0  0  0  0  0  0  0
   35.0105   23.9774   84.4357 C   0  0  0  0  0  0  0  0  0  0  0  0
   36.0542   24.4528   85.2156 C   0  0  0  0  0  0  0  0  0  0  0  0
   36.0245   25.7616   85.6856 C   0  0  0  0  0  0  0  0  0  0  0  0
   32.9014   27.0206   84.1899 O   0  0  0  0  0  0  0  0  0  0  0  0
   31.8057   26.5519   83.4168 C   0  0  0  0  0  0  0  0  0  0  0  0
   35.0315   22.6933   83.9674 O   0  0  0  0  0  0  0  0  0  0  0  0
   35.0905   34.2077   96.6900 H   0  0  0  0  0  0  0  0  0  0  0  0
   36.6488   34.4638   98.5523 H   0  0  0  0  0  0  0  0  0  0  0  0
   39.9660   33.6088   96.0075 H   0  0  0  0  0  0  0  0  0  0  0  0
   38.4319   33.2521   94.1523 H   0  0  0  0  0  0  0  0  0  0  0  0
   35.7154   32.3105   87.8394 H   0  0  0  0  0  0  0  0  0  0  0  0
   34.0007   32.3731   87.8897 H   0  0  0  0  0  0  0  0  0  0  0  0
   35.8536   33.4895   89.7856 H   0  0  0  0  0  0  0  0  0  0  0  0
   34.1197   33.6152   89.7999 H   0  0  0  0  0  0  0  0  0  0  0  0
   32.6220   30.6934   89.0015 H   0  0  0  0  0  0  0  0  0  0  0  0
   33.2719   29.2859   89.7523 H   0  0  0  0  0  0  0  0  0  0  0  0
   35.8248   29.0976   90.0462 H   0  0  0  0  0  0  0  0  0  0  0  0
   36.9154   30.0631   89.1311 H   0  0  0  0  0  0  0  0  0  0  0  0
   33.5063   30.4638   91.7767 H   0  0  0  0  0  0  0  0  0  0  0  0
   32.6928   31.7971   91.0185 H   0  0  0  0  0  0  0  0  0  0  0  0
   37.0212   31.5187   90.8872 H   0  0  0  0  0  0  0  0  0  0  0  0
   36.1154   30.3418   91.7959 H   0  0  0  0  0  0  0  0  0  0  0  0
   34.5154   27.5402   89.1673 H   0  0  0  0  0  0  0  0  0  0  0  0
   35.0409   26.3281   88.0305 H   0  0  0  0  0  0  0  0  0  0  0  0
   36.2743   27.3787   88.7305 H   0  0  0  0  0  0  0  0  0  0  0  0
   33.1689   24.4065   83.4940 H   0  0  0  0  0  0  0  0  0  0  0  0
   36.8852   23.8134   85.4747 H   0  0  0  0  0  0  0  0  0  0  0  0
   36.8412   26.0638   86.3215 H   0  0  0  0  0  0  0  0  0  0  0  0
   31.0728   27.3500   83.3065 H   0  0  0  0  0  0  0  0  0  0  0  0
   32.1154   26.2471   82.4167 H   0  0  0  0  0  0  0  0  0  0  0  0
   31.3154   25.7148   83.9129 H   0  0  0  0  0  0  0  0  0  0  0  0
   35.8574   22.2467   84.1650 H   0  0  0  0  0  0  0  0  0  0  0  0
  1  2  1  0
  1  5  2  0
 19  1  1  1
  2  3  1  0
  3  4  2  0
  4  6  1  0
  4  5  1  0
  6 11  1  0
  6  7  2  0
  7  8  1  0
  7 36  1  0
  8  9  2  0
  8 37  1  0
  9 12  1  0
  9 10  1  0
 10 11  2  0
 10 38  1  0
 11 39  1  0
 15 13  1  6
 13 22  1  0
 13 23  2  0
 14 15  1  0
 14 16  1  0
 14 40  1  0
 14 41  1  0
 15 17  1  0
 15 18  1  0
 16 19  1  0
 16 42  1  0
 16 43  1  0
 17 20  1  0
 17 44  1  0
 17 45  1  0
 18 21  1  0
 18 46  1  0
 18 47  1  0
 19 20  1  0
 19 21  1  0
 20 48  1  0
 20 49  1  0
 21 50  1  0
 21 51  1  0
 22 25  1  0
 22 26  1  0
 23 24  1  0
 24 25  2  0
 25 27  1  0
 26 52  1  0
 26 53  1  0
 26 54  1  0
 27 28  2  0
 27 32  1  0
 28 29  1  0
 28 33  1  0
 29 30  2  0
 29 55  1  0
 30 31  1  0
 30 35  1  0
 31 32  2  0
 31 56  1  0
 32 57  1  0
 33 34  1  0
 34 58  1  0
 34 59  1  0
 34 60  1  0
 35 61  1  0
M  END
>  <Name>  (1) 
BDB50174290

>  <Target>  (1) 
11-beta-Hydroxysteroid Dehydrogenase 1 (11-beta-HSD1)

>  <IC50_in_nM>  (1) 
 8.6

>  <Kd_from_ITC>  (1) 
false

>  <Uniprot_ID>  (1) 
P28845

>  <source_organism>  (1) 
Homo sapiens

>  <SourceTag>  (1) 
11betaHSD1

>  <s_i_glide_gridfile>  (1) 
11betahsd1_glide-grid

>  <i_i_glide_lignum>  (1) 
3

>  <i_i_glide_rotatable_bonds>  (1) 
6

>  <r_i_docking_score>  (1) 
-8.13411906709471

>  <r_i_glide_ligand_efficiency>  (1) 
-0.232403401916992

>  <r_i_glide_ligand_efficiency_sa>  (1) 
-0.760206937482957

>  <r_i_glide_ligand_efficiency_ln>  (1) 
-1.78561966227344

>  <r_i_glide_gscore>  (1) 
-8.13411906709471

>  <r_i_glide_lipo>  (1) 
-4.22268638079566

>  <r_i_glide_hbond>  (1) 
0

>  <r_i_glide_metal>  (1) 
-0

>  <r_i_glide_rewards>  (1) 
-2.15363094610335

>  <r_i_glide_evdw>  (1) 
-33.3403625488281

>  <r_i_glide_ecoul>  (1) 
-2.75736093521118

>  <r_i_glide_erotb>  (1) 
0.358101084081536

>  <r_i_glide_esite>  (1) 
-0.0352805565541577

>  <r_i_glide_emodel>  (1) 
-47.9086104439475

>  <r_i_glide_energy>  (1) 
-36.0977234840393

>  <r_i_glide_einternal>  (1) 
3.92618846893311

>  <i_i_glide_confnum>  (1) 
112

>  <i_i_glide_posenum>  (1) 
274

>  <r_i_glide_eff_state_penalty>  (1) 
0

$$$$
