BDB50192686-4-0000
     RDKit          3D

 50 52  0  0  1  0  0  0  0  0999 V2000
   34.2885   34.9928   95.5698 O   0  0  0  0  0  0  0  0  0  0  0  0
   34.8465   31.6123   92.5027 C   0  0  0  0  0  0  0  0  0  0  0  0
   34.4060   33.0110   91.9761 C   0  0  2  0  0  0  0  0  0  0  0  0
   35.0767   30.5901   91.3536 C   0  0  0  0  0  0  0  0  0  0  0  0
   33.0849   32.7812   91.1839 C   0  0  0  0  0  0  0  0  0  0  0  0
   35.4943   33.4702   90.9543 C   0  0  0  0  0  0  0  0  0  0  0  0
   34.7318   31.2252   89.9667 C   0  0  1  0  0  0  0  0  0  0  0  0
   33.2639   31.7571   90.0272 C   0  0  0  0  0  0  0  0  0  0  0  0
   35.6649   32.4612   89.7814 C   0  0  0  0  0  0  0  0  0  0  0  0
   34.9156   30.2380   88.7784 C   0  0  0  0  0  0  0  0  0  0  0  0
   35.7154   29.1833   88.9333 N   0  0  0  0  0  0  0  0  0  0  0  0
   34.3544   30.4322   87.7035 O   0  0  0  0  0  0  0  0  0  0  0  0
   34.2522   33.9252   93.1103 N   0  0  0  0  0  0  0  0  0  0  0  0
   33.9756   35.2435   93.1301 C   0  0  0  0  0  0  0  0  0  0  0  0
   33.7152   35.8951   92.1191 O   0  0  0  0  0  0  0  0  0  0  0  0
   33.9845   35.9392   94.5216 C   0  0  0  0  0  0  0  0  0  0  0  0
   34.9153   37.1777   94.5633 C   0  0  0  0  0  0  0  0  0  0  0  0
   32.5745   36.4603   94.8652 C   0  0  0  0  0  0  0  0  0  0  0  0
   35.5887   34.6692   95.9254 C   0  0  0  0  0  0  0  0  0  0  0  0
   36.7023   34.7022   95.0670 C   0  0  0  0  0  0  0  0  0  0  0  0
   37.9831   34.4853   95.5689 C   0  0  0  0  0  0  0  0  0  0  0  0
   38.1439   34.2004   96.9202 C   0  0  0  0  0  0  0  0  0  0  0  0
   37.0429   34.0639   97.7522 C   0  0  0  0  0  0  0  0  0  0  0  0
   35.7686   34.2945   97.2509 C   0  0  0  0  0  0  0  0  0  0  0  0
   39.7153   34.0644   97.5996 Cl  0  0  0  0  0  0  0  0  0  0  0  0
   35.7502   31.7062   93.1063 H   0  0  0  0  0  0  0  0  0  0  0  0
   34.0881   31.2182   93.1815 H   0  0  0  0  0  0  0  0  0  0  0  0
   36.1260   30.2887   91.3729 H   0  0  0  0  0  0  0  0  0  0  0  0
   34.5150   29.6699   91.5306 H   0  0  0  0  0  0  0  0  0  0  0  0
   32.3104   32.4291   91.8652 H   0  0  0  0  0  0  0  0  0  0  0  0
   32.7204   33.7292   90.7836 H   0  0  0  0  0  0  0  0  0  0  0  0
   35.2433   34.4510   90.5498 H   0  0  0  0  0  0  0  0  0  0  0  0
   36.4488   33.6049   91.4668 H   0  0  0  0  0  0  0  0  0  0  0  0
   32.5629   30.9293   90.1520 H   0  0  0  0  0  0  0  0  0  0  0  0
   32.9886   32.2365   89.0857 H   0  0  0  0  0  0  0  0  0  0  0  0
   35.4514   32.9643   88.8356 H   0  0  0  0  0  0  0  0  0  0  0  0
   36.7102   32.1502   89.7206 H   0  0  0  0  0  0  0  0  0  0  0  0
   36.1819   29.0149   89.8103 H   0  0  0  0  0  0  0  0  0  0  0  0
   35.8849   28.5647   88.1529 H   0  0  0  0  0  0  0  0  0  0  0  0
   34.4067   33.5055   94.0156 H   0  0  0  0  0  0  0  0  0  0  0  0
   34.5111   38.0290   94.0170 H   0  0  0  0  0  0  0  0  0  0  0  0
   35.0772   37.5167   95.5900 H   0  0  0  0  0  0  0  0  0  0  0  0
   35.8894   36.9673   94.1332 H   0  0  0  0  0  0  0  0  0  0  0  0
   32.2202   37.2054   94.1513 H   0  0  0  0  0  0  0  0  0  0  0  0
   31.8399   35.6599   94.8988 H   0  0  0  0  0  0  0  0  0  0  0  0
   32.5615   36.9338   95.8476 H   0  0  0  0  0  0  0  0  0  0  0  0
   36.6040   34.9244   94.0179 H   0  0  0  0  0  0  0  0  0  0  0  0
   38.8453   34.5633   94.9231 H   0  0  0  0  0  0  0  0  0  0  0  0
   37.1860   33.8008   98.7883 H   0  0  0  0  0  0  0  0  0  0  0  0
   34.9114   34.2215   97.9013 H   0  0  0  0  0  0  0  0  0  0  0  0
 16  1  1  0
  1 19  1  0
  2  3  1  0
  2  4  1  0
  2 26  1  0
  2 27  1  0
  3  5  1  0
  3 13  1  1
  3  6  1  0
  4  7  1  0
  4 28  1  0
  4 29  1  0
  5  8  1  0
  5 30  1  0
  5 31  1  0
  6  9  1  0
  6 32  1  0
  6 33  1  0
  7  8  1  0
  7  9  1  0
  7 10  1  6
  8 34  1  0
  8 35  1  0
  9 36  1  0
  9 37  1  0
 10 11  1  0
 10 12  2  0
 11 38  1  0
 11 39  1  0
 13 14  1  0
 13 40  1  0
 14 15  2  0
 14 16  1  0
 16 17  1  0
 16 18  1  0
 17 41  1  0
 17 42  1  0
 17 43  1  0
 18 44  1  0
 18 45  1  0
 18 46  1  0
 19 20  2  0
 19 24  1  0
 20 21  1  0
 20 47  1  0
 21 22  2  0
 21 48  1  0
 22 23  1  0
 22 25  1  0
 23 24  2  0
 23 49  1  0
 24 50  1  0
M  END
>  <Name>  (1) 
BDB50192686

>  <Target>  (1) 
11-beta-Hydroxysteroid Dehydrogenase 1 (11-beta-HSD1)

>  <IC50_in_nM>  (1) 
 450

>  <Kd_from_ITC>  (1) 
false

>  <Uniprot_ID>  (1) 
P28845

>  <source_organism>  (1) 
Homo sapiens

>  <SourceTag>  (1) 
11betaHSD1

>  <s_i_glide_gridfile>  (1) 
11betahsd1_glide-grid

>  <i_i_glide_lignum>  (1) 
5

>  <i_i_glide_rotatable_bonds>  (1) 
6

>  <r_i_docking_score>  (1) 
-9.69046990108318

>  <r_i_glide_ligand_efficiency>  (1) 
-0.387618796043327

>  <r_i_glide_ligand_efficiency_sa>  (1) 
-1.13340423407931

>  <r_i_glide_ligand_efficiency_ln>  (1) 
-2.29693176650581

>  <r_i_glide_gscore>  (1) 
-9.69046990108318

>  <r_i_glide_lipo>  (1) 
-4.75490866519214

>  <r_i_glide_hbond>  (1) 
-0.163947146689681

>  <r_i_glide_metal>  (1) 
-0

>  <r_i_glide_rewards>  (1) 
-2.10864805920312

>  <r_i_glide_evdw>  (1) 
-48.0134811401367

>  <r_i_glide_ecoul>  (1) 
-5.60049915313721

>  <r_i_glide_erotb>  (1) 
0.577782899979166

>  <r_i_glide_esite>  (1) 
0

>  <r_i_glide_emodel>  (1) 
-82.1606062950934

>  <r_i_glide_energy>  (1) 
-53.6139802932739

>  <r_i_glide_einternal>  (1) 
3.0081672668457

>  <i_i_glide_confnum>  (1) 
4

>  <i_i_glide_posenum>  (1) 
98

>  <r_i_glide_eff_state_penalty>  (1) 
0

$$$$
