BDB29839-15-0000
     RDKit          3D

 48 50  0  0  1  0  0  0  0  0999 V2000
   34.1230   35.7273   94.3188 C   0  0  0  0  0  0  0  0  0  0  0  0
   33.8373   35.2859   92.8308 C   0  0  0  0  0  0  0  0  0  0  0  0
   33.7289   33.9895   92.4272 N   0  0  0  0  0  0  0  0  0  0  0  0
   33.7155   36.1641   91.9802 O   0  0  0  0  0  0  0  0  0  0  0  0
   33.3935   33.6425   91.0336 C   0  0  0  0  0  0  0  0  0  0  0  0
   33.8818   32.7847   93.2394 C   0  0  0  0  0  0  0  0  0  0  0  0
   33.3189   31.6891   92.3588 C   0  0  0  0  0  0  0  0  0  0  0  0
   33.6302   32.1215   90.9378 C   0  0  0  0  0  0  0  0  0  0  0  0
   35.1058   31.7607   90.5994 C   0  0  0  0  0  0  0  0  0  0  0  0
   32.7577   31.3821   89.8943 C   0  0  0  0  0  0  0  0  0  0  0  0
   33.0739   31.8433   88.4592 C   0  0  0  0  0  0  0  0  0  0  0  0
   34.5763   31.6534   88.1426 C   0  0  0  0  0  0  0  0  0  0  0  0
   35.4894   32.2896   89.2056 C   0  0  0  0  0  0  0  0  0  0  0  0
   35.4653   35.1176   94.8043 C   0  0  0  0  0  0  0  0  0  0  0  0
   35.4795   33.9026   95.4979 C   0  0  0  0  0  0  0  0  0  0  0  0
   36.6743   33.2608   95.7724 C   0  0  0  0  0  0  0  0  0  0  0  0
   37.8838   33.8970   95.5276 C   0  0  0  0  0  0  0  0  0  0  0  0
   37.8937   35.1600   94.9531 C   0  0  0  0  0  0  0  0  0  0  0  0
   36.6966   35.7490   94.5547 C   0  0  0  0  0  0  0  0  0  0  0  0
   34.1967   37.2858   94.4387 C   0  0  0  0  0  0  0  0  0  0  0  0
   32.9149   35.3819   95.2369 C   0  0  0  0  0  0  0  0  0  0  0  0
   32.3270   33.8248   90.9034 H   0  0  0  0  0  0  0  0  0  0  0  0
   33.9084   34.2166   90.2661 H   0  0  0  0  0  0  0  0  0  0  0  0
   34.9376   32.5780   93.4134 H   0  0  0  0  0  0  0  0  0  0  0  0
   33.3146   32.7957   94.1524 H   0  0  0  0  0  0  0  0  0  0  0  0
   33.6716   30.6886   92.6157 H   0  0  0  0  0  0  0  0  0  0  0  0
   32.2373   31.6639   92.4931 H   0  0  0  0  0  0  0  0  0  0  0  0
   35.7868   32.2080   91.3253 H   0  0  0  0  0  0  0  0  0  0  0  0
   35.2759   30.6847   90.6735 H   0  0  0  0  0  0  0  0  0  0  0  0
   32.8833   30.3015   89.9842 H   0  0  0  0  0  0  0  0  0  0  0  0
   31.7054   31.5765   90.0980 H   0  0  0  0  0  0  0  0  0  0  0  0
   32.7952   32.8897   88.3293 H   0  0  0  0  0  0  0  0  0  0  0  0
   32.4722   31.2683   87.7527 H   0  0  0  0  0  0  0  0  0  0  0  0
   34.8345   32.0626   87.1718 H   0  0  0  0  0  0  0  0  0  0  0  0
   34.7953   30.5860   88.0786 H   0  0  0  0  0  0  0  0  0  0  0  0
   35.4317   33.3758   89.1550 H   0  0  0  0  0  0  0  0  0  0  0  0
   36.5243   32.0634   88.9849 H   0  0  0  0  0  0  0  0  0  0  0  0
   34.5679   33.3897   95.7522 H   0  0  0  0  0  0  0  0  0  0  0  0
   36.6416   32.2565   96.1523 H   0  0  0  0  0  0  0  0  0  0  0  0
   38.8152   33.4073   95.7728 H   0  0  0  0  0  0  0  0  0  0  0  0
   38.8347   35.6570   94.7775 H   0  0  0  0  0  0  0  0  0  0  0  0
   36.7530   36.6945   94.0433 H   0  0  0  0  0  0  0  0  0  0  0  0
   34.9157   37.7285   93.7524 H   0  0  0  0  0  0  0  0  0  0  0  0
   33.2396   37.7596   94.2120 H   0  0  0  0  0  0  0  0  0  0  0  0
   34.4786   37.6017   95.4452 H   0  0  0  0  0  0  0  0  0  0  0  0
   32.6129   34.3444   95.2131 H   0  0  0  0  0  0  0  0  0  0  0  0
   33.1239   35.6253   96.2800 H   0  0  0  0  0  0  0  0  0  0  0  0
   32.0266   35.9458   94.9517 H   0  0  0  0  0  0  0  0  0  0  0  0
  1  2  1  0
  1 14  1  0
  1 21  1  0
  1 20  1  0
  2  3  1  0
  2  4  2  0
  3  5  1  0
  3  6  1  0
  8  5  1  0
  5 22  1  0
  5 23  1  0
  6  7  1  0
  6 24  1  0
  6 25  1  0
  7  8  1  0
  7 26  1  0
  7 27  1  0
  8  9  1  0
  8 10  1  0
  9 13  1  0
  9 28  1  0
  9 29  1  0
 10 11  1  0
 10 30  1  0
 10 31  1  0
 11 12  1  0
 11 32  1  0
 11 33  1  0
 12 13  1  0
 12 34  1  0
 12 35  1  0
 13 36  1  0
 13 37  1  0
 14 19  1  0
 14 15  2  0
 15 16  1  0
 15 38  1  0
 16 17  2  0
 16 39  1  0
 17 18  1  0
 17 40  1  0
 18 19  2  0
 18 41  1  0
 19 42  1  0
 20 43  1  0
 20 44  1  0
 20 45  1  0
 21 46  1  0
 21 47  1  0
 21 48  1  0
M  END
>  <Name>  (1) 
BDB29839

>  <Target>  (1) 
11-beta-Hydroxysteroid Dehydrogenase 1 (11-beta-HSD1)

>  <IC50_in_nM>  (1) 
  1.5

>  <Kd_from_ITC>  (1) 
false

>  <Uniprot_ID>  (1) 
P28845

>  <source_organism>  (1) 
Homo sapiens (human)

>  <SourceTag>  (1) 
11betaHSD1

>  <s_i_glide_gridfile>  (1) 
11betahsd1_glide-grid

>  <i_i_glide_lignum>  (1) 
16

>  <i_i_glide_rotatable_bonds>  (1) 
3

>  <r_i_docking_score>  (1) 
-9.57712143552334

>  <r_i_glide_ligand_efficiency>  (1) 
-0.456053401691588

>  <r_i_glide_ligand_efficiency_sa>  (1) 
-1.25821675437088

>  <r_i_glide_ligand_efficiency_ln>  (1) 
-2.3679239225371

>  <r_i_glide_gscore>  (1) 
-9.57712143552334

>  <r_i_glide_lipo>  (1) 
-4.65212737275176

>  <r_i_glide_hbond>  (1) 
-0.28933455324277

>  <r_i_glide_metal>  (1) 
-0

>  <r_i_glide_rewards>  (1) 
-3.00296307966655

>  <r_i_glide_evdw>  (1) 
-30.166784286499

>  <r_i_glide_ecoul>  (1) 
-5.28322458267212

>  <r_i_glide_erotb>  (1) 
0.66812647186351

>  <r_i_glide_esite>  (1) 
0

>  <r_i_glide_emodel>  (1) 
-53.1677241432504

>  <r_i_glide_energy>  (1) 
-35.4500088691711

>  <r_i_glide_einternal>  (1) 
6.26223516464233

>  <i_i_glide_confnum>  (1) 
9

>  <i_i_glide_posenum>  (1) 
94

>  <r_i_glide_eff_state_penalty>  (1) 
0

$$$$
