BDB50317223-19-0000
     RDKit          3D

 51 55  0  0  1  0  0  0  0  0999 V2000
   37.4651   35.0984   95.0178 N   0  0  0  0  0  0  0  0  0  0  0  0
   38.7248   34.7257   95.3529 C   0  0  0  0  0  0  0  0  0  0  0  0
   39.0544   34.2138   96.6043 C   0  0  0  0  0  0  0  0  0  0  0  0
   38.0385   34.0638   97.5457 C   0  0  0  0  0  0  0  0  0  0  0  0
   36.7318   34.4171   97.2084 C   0  0  0  0  0  0  0  0  0  0  0  0
   36.4750   34.9630   95.9431 C   0  0  0  0  0  0  0  0  0  0  0  0
   35.1884   35.3894   95.5671 N   0  0  0  0  0  0  0  0  0  0  0  0
   34.1909   30.5710   90.5501 C   0  0  0  0  0  0  0  0  0  0  0  0
   33.9131   31.2606   91.9087 C   0  0  1  0  0  0  0  0  0  0  0  0
   35.0892   31.4397   89.6469 C   0  0  2  0  0  0  0  0  0  0  0  0
   35.2663   31.5239   92.5983 C   0  0  0  0  0  0  0  0  0  0  0  0
   36.4089   31.7159   90.3969 C   0  0  0  0  0  0  0  0  0  0  0  0
   36.2070   32.4448   91.7556 C   0  0  1  0  0  0  0  0  0  0  0  0
   34.3889   32.7960   89.4387 C   0  0  0  0  0  0  0  0  0  0  0  0
   34.1137   33.5600   90.7653 C   0  0  1  0  0  0  0  0  0  0  0  0
   33.2265   32.6180   91.6299 C   0  0  0  0  0  0  0  0  0  0  0  0
   35.4637   33.8062   91.5410 C   0  0  1  0  0  0  0  0  0  0  0  0
   34.6931   35.6525   93.0780 C   0  0  0  0  0  0  0  0  0  0  0  0
   34.8834   36.3328   94.4680 C   0  0  1  0  0  0  0  0  0  0  0  0
   34.1093   36.2552   92.1795 O   0  0  0  0  0  0  0  0  0  0  0  0
   34.0471   35.4524   96.4889 C   0  0  0  0  0  0  0  0  0  0  0  0
   32.9176   36.2011   95.7932 C   0  0  0  0  0  0  0  0  0  0  0  0
   33.6711   37.1705   94.9155 C   0  0  0  0  0  0  0  0  0  0  0  0
   35.2948   34.4718   92.8473 N   0  0  0  0  0  0  0  0  0  0  0  0
   39.4849   34.8634   94.5988 H   0  0  0  0  0  0  0  0  0  0  0  0
   40.0744   33.9488   96.8371 H   0  0  0  0  0  0  0  0  0  0  0  0
   38.2591   33.6682   98.5261 H   0  0  0  0  0  0  0  0  0  0  0  0
   35.9447   34.2911   97.9358 H   0  0  0  0  0  0  0  0  0  0  0  0
   34.6607   29.6003   90.7125 H   0  0  0  0  0  0  0  0  0  0  0  0
   33.2490   30.3557   90.0428 H   0  0  0  0  0  0  0  0  0  0  0  0
   33.3152   30.6219   92.5531 H   0  0  0  0  0  0  0  0  0  0  0  0
   35.2793   30.9464   88.6920 H   0  0  0  0  0  0  0  0  0  0  0  0
   35.1030   31.9436   93.5919 H   0  0  0  0  0  0  0  0  0  0  0  0
   35.7154   30.5518   92.7852 H   0  0  0  0  0  0  0  0  0  0  0  0
   36.9426   30.7773   90.5561 H   0  0  0  0  0  0  0  0  0  0  0  0
   37.0703   32.3095   89.7637 H   0  0  0  0  0  0  0  0  0  0  0  0
   37.1632   32.5837   92.2611 H   0  0  0  0  0  0  0  0  0  0  0  0
   34.9988   33.4201   88.7842 H   0  0  0  0  0  0  0  0  0  0  0  0
   33.4541   32.6485   88.8951 H   0  0  0  0  0  0  0  0  0  0  0  0
   33.5769   34.4787   90.5527 H   0  0  0  0  0  0  0  0  0  0  0  0
   32.2737   32.4482   91.1265 H   0  0  0  0  0  0  0  0  0  0  0  0
   32.9618   33.1003   92.5725 H   0  0  0  0  0  0  0  0  0  0  0  0
   36.0939   34.4653   90.9402 H   0  0  0  0  0  0  0  0  0  0  0  0
   35.7308   36.9947   94.2996 H   0  0  0  0  0  0  0  0  0  0  0  0
   34.3200   35.9806   97.4051 H   0  0  0  0  0  0  0  0  0  0  0  0
   33.7390   34.4419   96.7590 H   0  0  0  0  0  0  0  0  0  0  0  0
   32.2708   36.7166   96.5035 H   0  0  0  0  0  0  0  0  0  0  0  0
   32.2951   35.5179   95.2128 H   0  0  0  0  0  0  0  0  0  0  0  0
   34.0053   38.0529   95.4658 H   0  0  0  0  0  0  0  0  0  0  0  0
   33.0422   37.5423   94.1069 H   0  0  0  0  0  0  0  0  0  0  0  0
   35.8409   34.0989   93.6108 H   0  0  0  0  0  0  0  0  0  0  0  0
  1  2  2  0
  1  6  1  0
  2  3  1  0
  2 25  1  0
  3  4  2  0
  3 26  1  0
  4  5  1  0
  4 27  1  0
  5  6  2  0
  5 28  1  0
  6  7  1  0
  7 19  1  0
  7 21  1  0
  8  9  1  0
  8 10  1  0
  8 29  1  0
  8 30  1  0
  9 11  1  0
  9 16  1  0
  9 31  1  1
 10 12  1  0
 10 14  1  0
 10 32  1  6
 11 13  1  0
 11 33  1  0
 11 34  1  0
 12 13  1  0
 12 35  1  0
 12 36  1  0
 13 17  1  0
 13 37  1  1
 14 15  1  0
 14 38  1  0
 14 39  1  0
 15 17  1  0
 15 16  1  0
 15 40  1  6
 16 41  1  0
 16 42  1  0
 17 24  1  0
 17 43  1  6
 18 19  1  0
 18 20  2  0
 18 24  1  0
 19 23  1  0
 19 44  1  6
 21 22  1  0
 21 45  1  0
 21 46  1  0
 22 23  1  0
 22 47  1  0
 22 48  1  0
 23 49  1  0
 23 50  1  0
 24 51  1  0
M  END
>  <Name>  (1) 
BDB50317223

>  <Target>  (1) 
11-beta-Hydroxysteroid Dehydrogenase 1 (11-beta-HSD1)

>  <IC50_in_nM>  (1) 
 5

>  <Kd_from_ITC>  (1) 
false

>  <Uniprot_ID>  (1) 
P28845

>  <source_organism>  (1) 
Homo sapiens

>  <SourceTag>  (1) 
11betaHSD1

>  <s_i_glide_gridfile>  (1) 
11betahsd1_glide-grid

>  <i_i_glide_lignum>  (1) 
20

>  <i_i_glide_rotatable_bonds>  (1) 
4

>  <r_i_docking_score>  (1) 
-10.1857826332708

>  <r_i_glide_ligand_efficiency>  (1) 
-0.424407609719616

>  <r_i_glide_ligand_efficiency_sa>  (1) 
-1.22420338420976

>  <r_i_glide_ligand_efficiency_ln>  (1) 
-2.43792517925087

>  <r_i_glide_gscore>  (1) 
-10.1857826332708

>  <r_i_glide_lipo>  (1) 
-4.98348758562979

>  <r_i_glide_hbond>  (1) 
-0.247548573083951

>  <r_i_glide_metal>  (1) 
-0

>  <r_i_glide_rewards>  (1) 
-2.5230892169907

>  <r_i_glide_evdw>  (1) 
-44.7026863098145

>  <r_i_glide_ecoul>  (1) 
-6.02868604660034

>  <r_i_glide_erotb>  (1) 
0.707779964914431

>  <r_i_glide_esite>  (1) 
0

>  <r_i_glide_emodel>  (1) 
-75.4515260705276

>  <r_i_glide_energy>  (1) 
-50.7313723564148

>  <r_i_glide_einternal>  (1) 
8.59721660614014

>  <i_i_glide_confnum>  (1) 
27

>  <i_i_glide_posenum>  (1) 
27

>  <r_i_glide_eff_state_penalty>  (1) 
0

$$$$
