BDB50263346-16-0000
     RDKit          3D

 48 51  0  0  1  0  0  0  0  0999 V2000
   32.6634   32.2106   89.9901 C   0  0  0  0  0  0  0  0  0  0  0  0
   33.6703   31.8004   89.1099 C   0  0  0  0  0  0  0  0  0  0  0  0
   34.9514   32.3408   89.2355 C   0  0  0  0  0  0  0  0  0  0  0  0
   35.2266   33.2795   90.2302 C   0  0  0  0  0  0  0  0  0  0  0  0
   34.1926   33.7003   91.0665 C   0  0  0  0  0  0  0  0  0  0  0  0
   32.9154   33.1938   90.9185 C   0  0  0  0  0  0  0  0  0  0  0  0
   33.4539   30.8913   88.0967 O   0  0  0  0  0  0  0  0  0  0  0  0
   32.1088   30.5621   87.7523 C   0  0  0  0  0  0  0  0  0  0  0  0
   31.3154   31.6325   87.7276 F   0  0  0  0  0  0  0  0  0  0  0  0
   31.6103   29.6647   88.6011 F   0  0  0  0  0  0  0  0  0  0  0  0
   32.1154   30.0638   86.5206 F   0  0  0  0  0  0  0  0  0  0  0  0
   34.3369   34.6133   92.2116 C   0  0  0  0  0  0  0  0  0  0  0  0
   34.5448   34.2031   93.5101 N   0  0  0  0  0  0  0  0  0  0  0  0
   34.5249   35.3908   94.2150 C   0  0  0  0  0  0  0  0  0  0  0  0
   34.2816   36.4080   93.4290 N   0  0  0  0  0  0  0  0  0  0  0  0
   34.1154   35.9001   92.1523 N   0  0  0  0  0  0  0  0  0  0  0  0
   34.7822   32.8474   94.0359 C   0  0  0  0  0  0  0  0  0  0  0  0
   33.7951   31.7848   93.4925 C   0  0  0  0  0  0  0  0  0  0  0  0
   36.2352   32.4389   93.7749 C   0  0  0  0  0  0  0  0  0  0  0  0
   36.1814   35.0664   96.1467 C   0  0  0  0  0  0  0  0  0  0  0  0
   36.3877   34.4377   97.3743 C   0  0  0  0  0  0  0  0  0  0  0  0
   37.6689   34.0863   97.7859 C   0  0  0  0  0  0  0  0  0  0  0  0
   38.7517   34.3177   96.9488 C   0  0  0  0  0  0  0  0  0  0  0  0
   38.5584   34.8660   95.6885 C   0  0  0  0  0  0  0  0  0  0  0  0
   37.2855   35.2887   95.3106 C   0  0  0  0  0  0  0  0  0  0  0  0
   40.0009   34.0638   97.3879 F   0  0  0  0  0  0  0  0  0  0  0  0
   34.0727   36.6521   96.4288 C   0  0  0  0  0  0  0  0  0  0  0  0
   34.7736   35.5016   95.7088 C   0  0  0  0  0  0  0  0  0  0  0  0
   33.5256   35.2638   96.5523 C   0  0  0  0  0  0  0  0  0  0  0  0
   31.6707   31.7923   89.9765 H   0  0  0  0  0  0  0  0  0  0  0  0
   35.7297   32.0225   88.5606 H   0  0  0  0  0  0  0  0  0  0  0  0
   36.2245   33.6767   90.3487 H   0  0  0  0  0  0  0  0  0  0  0  0
   32.1235   33.5080   91.5816 H   0  0  0  0  0  0  0  0  0  0  0  0
   34.6350   32.8990   95.1143 H   0  0  0  0  0  0  0  0  0  0  0  0
   33.7154   30.9247   94.1523 H   0  0  0  0  0  0  0  0  0  0  0  0
   32.7890   32.1770   93.3523 H   0  0  0  0  0  0  0  0  0  0  0  0
   34.1189   31.3852   92.5317 H   0  0  0  0  0  0  0  0  0  0  0  0
   36.5154   31.6638   94.4840 H   0  0  0  0  0  0  0  0  0  0  0  0
   36.3727   32.0638   92.7605 H   0  0  0  0  0  0  0  0  0  0  0  0
   36.9462   33.2480   93.8940 H   0  0  0  0  0  0  0  0  0  0  0  0
   35.5719   34.2421   98.0502 H   0  0  0  0  0  0  0  0  0  0  0  0
   37.8266   33.6638   98.7660 H   0  0  0  0  0  0  0  0  0  0  0  0
   39.4065   35.0367   95.0416 H   0  0  0  0  0  0  0  0  0  0  0  0
   37.1599   35.7740   94.3537 H   0  0  0  0  0  0  0  0  0  0  0  0
   34.5154   37.0961   97.3172 H   0  0  0  0  0  0  0  0  0  0  0  0
   33.5168   37.3900   95.8489 H   0  0  0  0  0  0  0  0  0  0  0  0
   32.5917   35.0272   96.0412 H   0  0  0  0  0  0  0  0  0  0  0  0
   33.5902   34.7680   97.5186 H   0  0  0  0  0  0  0  0  0  0  0  0
  1  6  2  0
  1  2  1  0
  1 30  1  0
  2  3  2  0
  2  7  1  0
  3  4  1  0
  3 31  1  0
  4  5  2  0
  4 32  1  0
  5 12  1  0
  5  6  1  0
  6 33  1  0
  7  8  1  0
  8  9  1  0
  8 10  1  0
  8 11  1  0
 12 16  2  0
 12 13  1  0
 13 14  1  0
 13 17  1  0
 14 15  2  0
 28 14  1  0
 15 16  1  0
 17 18  1  0
 17 19  1  0
 17 34  1  0
 18 35  1  0
 18 36  1  0
 18 37  1  0
 19 38  1  0
 19 39  1  0
 19 40  1  0
 20 28  1  0
 20 21  2  0
 20 25  1  0
 21 22  1  0
 21 41  1  0
 22 23  2  0
 22 42  1  0
 23 24  1  0
 23 26  1  0
 24 25  2  0
 24 43  1  0
 25 44  1  0
 27 28  1  0
 27 29  1  0
 27 45  1  0
 27 46  1  0
 28 29  1  0
 29 47  1  0
 29 48  1  0
M  END
>  <Name>  (1) 
BDB50263346

>  <Target>  (1) 
11-beta-Hydroxysteroid Dehydrogenase 1 (11-beta-HSD1)

>  <IC50_in_nM>  (1) 
 1.6

>  <Kd_from_ITC>  (1) 
false

>  <Uniprot_ID>  (1) 
P28845

>  <source_organism>  (1) 
Homo sapiens

>  <SourceTag>  (1) 
11betaHSD1

>  <s_i_glide_gridfile>  (1) 
11betahsd1_glide-grid

>  <i_i_glide_lignum>  (1) 
17

>  <i_i_glide_rotatable_bonds>  (1) 
6

>  <r_i_docking_score>  (1) 
-9.66896153569709

>  <r_i_glide_ligand_efficiency>  (1) 
-0.333412466748175

>  <r_i_glide_ligand_efficiency_sa>  (1) 
-1.02434873033408

>  <r_i_glide_ligand_efficiency_ln>  (1) 
-2.21394700796512

>  <r_i_glide_gscore>  (1) 
-9.66896153569709

>  <r_i_glide_lipo>  (1) 
-5.21870932971252

>  <r_i_glide_hbond>  (1) 
0

>  <r_i_glide_metal>  (1) 
-0

>  <r_i_glide_rewards>  (1) 
-2.73942245596704

>  <r_i_glide_evdw>  (1) 
-36.4971199035645

>  <r_i_glide_ecoul>  (1) 
-2.33686256408691

>  <r_i_glide_erotb>  (1) 
0.478331480025323

>  <r_i_glide_esite>  (1) 
-0.0137758502515884

>  <r_i_glide_emodel>  (1) 
-56.8313363967787

>  <r_i_glide_energy>  (1) 
-38.8339824676514

>  <r_i_glide_einternal>  (1) 
11.0170116424561

>  <i_i_glide_confnum>  (1) 
93

>  <i_i_glide_posenum>  (1) 
351

>  <r_i_glide_eff_state_penalty>  (1) 
0

$$$$
