BDB50174295-17-0000
     RDKit          3D

 65 70  0  0  1  0  0  0  0  0999 V2000
   35.2379   26.9929   86.2307 C   0  0  0  0  0  0  0  0  0  0  0  0
   34.9153   26.5324   84.9523 C   0  0  0  0  0  0  0  0  0  0  0  0
   35.0777   25.1942   84.6095 C   0  0  0  0  0  0  0  0  0  0  0  0
   35.5691   24.2911   85.5485 C   0  0  0  0  0  0  0  0  0  0  0  0
   35.8961   24.7254   86.8327 C   0  0  0  0  0  0  0  0  0  0  0  0
   35.7154   26.0638   87.1713 C   0  0  0  0  0  0  0  0  0  0  0  0
   34.4647   30.0216   87.8359 C   0  0  0  0  0  0  0  0  0  0  0  0
   34.1178   30.4023   86.5813 O   0  0  0  0  0  0  0  0  0  0  0  0
   34.4593   29.3214   85.7669 N   0  0  0  0  0  0  0  0  0  0  0  0
   34.9155   28.4244   86.6209 C   0  0  0  0  0  0  0  0  0  0  0  0
   35.0025   28.8369   87.8737 N   0  0  0  0  0  0  0  0  0  0  0  0
   34.8694   33.9979   91.9414 C   0  0  0  0  0  0  0  0  0  0  0  0
   34.0136   31.5292   91.4581 C   0  0  0  0  0  0  0  0  0  0  0  0
   34.6381   32.8720   90.9314 C   0  0  1  0  0  0  0  0  0  0  0  0
   33.9343   30.4523   90.3247 C   0  0  0  0  0  0  0  0  0  0  0  0
   33.6974   33.3495   89.7938 C   0  0  0  0  0  0  0  0  0  0  0  0
   36.0197   32.5020   90.3406 C   0  0  0  0  0  0  0  0  0  0  0  0
   34.4278   31.0330   88.9768 C   0  0  2  0  0  0  0  0  0  0  0  0
   33.5545   32.2845   88.6765 C   0  0  0  0  0  0  0  0  0  0  0  0
   35.8660   31.5139   89.2011 C   0  0  0  0  0  0  0  0  0  0  0  0
   34.0907   34.3061   93.0225 N   0  0  0  0  0  0  0  0  0  0  0  0
   35.8630   34.8605   91.8554 N   0  0  0  0  0  0  0  0  0  0  0  0
   35.8041   35.7250   92.9305 N   0  0  0  0  0  0  0  0  0  0  0  0
   34.7587   35.3529   93.6085 C   0  0  0  0  0  0  0  0  0  0  0  0
   32.9003   33.6419   93.4970 C   0  0  0  0  0  0  0  0  0  0  0  0
   34.3886   35.8958   94.9051 C   0  0  0  0  0  0  0  0  0  0  0  0
   34.6940   35.2266   96.1001 C   0  0  0  0  0  0  0  0  0  0  0  0
   34.1352   35.7253   97.2679 C   0  0  0  0  0  0  0  0  0  0  0  0
   33.3398   36.8635   97.2904 C   0  0  0  0  0  0  0  0  0  0  0  0
   33.1056   37.5348   96.0996 C   0  0  0  0  0  0  0  0  0  0  0  0
   33.6156   37.0545   94.9056 C   0  0  0  0  0  0  0  0  0  0  0  0
   35.5794   33.9717   96.2240 C   0  0  0  0  0  0  0  0  0  0  0  0
   36.6653   34.2898   96.9298 F   0  0  0  0  0  0  0  0  0  0  0  0
   34.9153   33.0275   96.8919 F   0  0  0  0  0  0  0  0  0  0  0  0
   35.9900   33.4330   95.0772 F   0  0  0  0  0  0  0  0  0  0  0  0
   35.7771   22.5724   85.0886 S   0  0  0  0  0  0  0  0  0  0  0  0
   37.5487   22.5067   84.4082 C   0  0  0  0  0  0  0  0  0  0  0  0
   35.7029   21.7794   86.3227 O   0  0  0  0  0  0  0  0  0  0  0  0
   34.8341   22.3065   83.9947 O   0  0  0  0  0  0  0  0  0  0  0  0
   38.3833   22.8833   85.3767 F   0  0  0  0  0  0  0  0  0  0  0  0
   37.8009   21.2538   84.0299 F   0  0  0  0  0  0  0  0  0  0  0  0
   37.6283   23.3366   83.3681 F   0  0  0  0  0  0  0  0  0  0  0  0
   34.5072   27.2067   84.2132 H   0  0  0  0  0  0  0  0  0  0  0  0
   34.8149   24.8619   83.6159 H   0  0  0  0  0  0  0  0  0  0  0  0
   36.2788   24.0345   87.5705 H   0  0  0  0  0  0  0  0  0  0  0  0
   35.9567   26.3865   88.1736 H   0  0  0  0  0  0  0  0  0  0  0  0
   34.5774   31.1474   92.3114 H   0  0  0  0  0  0  0  0  0  0  0  0
   32.9927   31.6813   91.8020 H   0  0  0  0  0  0  0  0  0  0  0  0
   34.5224   29.5760   90.6031 H   0  0  0  0  0  0  0  0  0  0  0  0
   32.9113   30.0987   90.1856 H   0  0  0  0  0  0  0  0  0  0  0  0
   32.7187   33.6300   90.1860 H   0  0  0  0  0  0  0  0  0  0  0  0
   34.1155   34.2444   89.3546 H   0  0  0  0  0  0  0  0  0  0  0  0
   36.5542   33.3765   89.9624 H   0  0  0  0  0  0  0  0  0  0  0  0
   36.6587   32.0775   91.1184 H   0  0  0  0  0  0  0  0  0  0  0  0
   33.8811   32.7452   87.7523 H   0  0  0  0  0  0  0  0  0  0  0  0
   32.5082   32.0070   88.5365 H   0  0  0  0  0  0  0  0  0  0  0  0
   36.5578   30.6821   89.3522 H   0  0  0  0  0  0  0  0  0  0  0  0
   36.1154   32.0764   88.3108 H   0  0  0  0  0  0  0  0  0  0  0  0
   33.1583   32.6175   93.7523 H   0  0  0  0  0  0  0  0  0  0  0  0
   32.5157   34.1263   94.3925 H   0  0  0  0  0  0  0  0  0  0  0  0
   32.1281   33.6638   92.7278 H   0  0  0  0  0  0  0  0  0  0  0  0
   34.3401   35.1804   98.1523 H   0  0  0  0  0  0  0  0  0  0  0  0
   32.9215   37.2243   98.2191 H   0  0  0  0  0  0  0  0  0  0  0  0
   32.5154   38.4292   96.0909 H   0  0  0  0  0  0  0  0  0  0  0  0
   33.3804   37.5669   93.9858 H   0  0  0  0  0  0  0  0  0  0  0  0
  1  6  1  0
  1  2  2  0
  1 10  1  0
  2  3  1  0
  2 43  1  0
  3  4  2  0
  3 44  1  0
  4  5  1  0
 36  4  1  0
  5  6  2  0
  5 45  1  0
  6 46  1  0
  7 11  2  0
  7  8  1  0
 18  7  1  6
  8  9  1  0
  9 10  2  0
 10 11  1  0
 12 21  1  0
 12 22  2  0
 14 12  1  1
 13 14  1  0
 13 15  1  0
 13 47  1  0
 13 48  1  0
 14 16  1  0
 14 17  1  0
 15 18  1  0
 15 49  1  0
 15 50  1  0
 16 19  1  0
 16 51  1  0
 16 52  1  0
 17 20  1  0
 17 53  1  0
 17 54  1  0
 18 19  1  0
 18 20  1  0
 19 55  1  0
 19 56  1  0
 20 57  1  0
 20 58  1  0
 21 24  1  0
 21 25  1  0
 22 23  1  0
 23 24  2  0
 24 26  1  0
 25 59  1  0
 25 60  1  0
 25 61  1  0
 26 27  2  0
 26 31  1  0
 27 28  1  0
 27 32  1  0
 28 29  2  0
 28 62  1  0
 29 30  1  0
 29 63  1  0
 30 31  2  0
 30 64  1  0
 31 65  1  0
 32 33  1  0
 32 34  1  0
 32 35  1  0
 36 37  1  0
 36 38  2  0
 36 39  2  0
 37 40  1  0
 37 41  1  0
 37 42  1  0
M  END
>  <Name>  (1) 
BDB50174295

>  <Target>  (1) 
11-beta-Hydroxysteroid Dehydrogenase 1 (11-beta-HSD1)

>  <IC50_in_nM>  (1) 
 1.9

>  <Kd_from_ITC>  (1) 
false

>  <Uniprot_ID>  (1) 
P28845

>  <source_organism>  (1) 
Homo sapiens

>  <SourceTag>  (1) 
11betaHSD1

>  <s_i_glide_gridfile>  (1) 
11betahsd1_glide-grid

>  <i_i_glide_lignum>  (1) 
18

>  <i_i_glide_rotatable_bonds>  (1) 
7

>  <r_i_docking_score>  (1) 
-9.0234797308052

>  <r_i_glide_ligand_efficiency>  (1) 
-0.214844755495362

>  <r_i_glide_ligand_efficiency_sa>  (1) 
-0.746806093685555

>  <r_i_glide_ligand_efficiency_ln>  (1) 
-1.90462409957466

>  <r_i_glide_gscore>  (1) 
-9.0234797308052

>  <r_i_glide_lipo>  (1) 
-4.47939011112773

>  <r_i_glide_hbond>  (1) 
0

>  <r_i_glide_metal>  (1) 
-0

>  <r_i_glide_rewards>  (1) 
-2.50160865998439

>  <r_i_glide_evdw>  (1) 
-31.7028408050537

>  <r_i_glide_ecoul>  (1) 
-3.52408576011658

>  <r_i_glide_erotb>  (1) 
0.155886564455806

>  <r_i_glide_esite>  (1) 
-0.0846126198787158

>  <r_i_glide_emodel>  (1) 
-40.0636425784766

>  <r_i_glide_energy>  (1) 
-35.2269265651703

>  <r_i_glide_einternal>  (1) 
5.0933198928833

>  <i_i_glide_confnum>  (1) 
154

>  <i_i_glide_posenum>  (1) 
119

>  <r_i_glide_eff_state_penalty>  (1) 
0

$$$$
