BDB29864-20-0000
     RDKit          3D

 38 40  0  0  1  0  0  0  0  0999 V2000
   34.3979   34.5253   92.9300 C   0  0  0  0  0  0  0  0  0  0  0  0
   34.2472   35.9766   93.9635 S   0  0  0  0  0  0  0  0  0  0  0  0
   34.4615   35.3383   95.3732 N   0  0  0  0  0  0  0  0  0  0  0  0
   35.6841   34.9807   95.8738 C   0  0  0  0  0  0  0  0  0  0  0  0
   36.8903   34.0638   97.7523 C   0  0  0  0  0  0  0  0  0  0  0  0
   35.6902   34.4616   97.1696 C   0  0  0  0  0  0  0  0  0  0  0  0
   36.8537   35.0957   95.1803 N   0  0  0  0  0  0  0  0  0  0  0  0
   38.0067   34.7029   95.7674 C   0  0  0  0  0  0  0  0  0  0  0  0
   38.0741   34.1732   97.0437 C   0  0  0  0  0  0  0  0  0  0  0  0
   35.3154   36.8638   93.4975 O   0  0  0  0  0  0  0  0  0  0  0  0
   32.8717   36.4343   93.7523 O   0  0  0  0  0  0  0  0  0  0  0  0
   39.1769   34.8638   95.0621 N   0  0  0  0  0  0  0  0  0  0  0  0
   33.3154   33.6592   92.7963 C   0  0  0  0  0  0  0  0  0  0  0  0
   33.3896   32.5961   91.9047 C   0  0  0  0  0  0  0  0  0  0  0  0
   34.5562   32.3834   91.1642 C   0  0  0  0  0  0  0  0  0  0  0  0
   35.6690   33.2031   91.3725 C   0  0  0  0  0  0  0  0  0  0  0  0
   35.5910   34.2751   92.2508 C   0  0  0  0  0  0  0  0  0  0  0  0
   34.5959   31.3633   90.0966 C   0  0  0  0  0  0  0  0  0  0  0  0
   33.6329   31.4007   89.0862 C   0  0  0  0  0  0  0  0  0  0  0  0
   33.7375   30.5554   87.9913 C   0  0  0  0  0  0  0  0  0  0  0  0
   34.8043   29.6638   87.9037 C   0  0  0  0  0  0  0  0  0  0  0  0
   35.7180   29.5544   88.9523 C   0  0  0  0  0  0  0  0  0  0  0  0
   35.6231   30.4169   90.0403 C   0  0  0  0  0  0  0  0  0  0  0  0
   34.9154   28.8474   86.7075 C   0  0  0  0  0  0  0  0  0  0  0  0
   34.9567   28.1950   85.7523 N   0  0  0  0  0  0  0  0  0  0  0  0
   36.9073   33.6638   98.7521 H   0  0  0  0  0  0  0  0  0  0  0  0
   34.7699   34.3666   97.7281 H   0  0  0  0  0  0  0  0  0  0  0  0
   39.0123   33.8688   97.4843 H   0  0  0  0  0  0  0  0  0  0  0  0
   40.0627   34.6205   95.4846 H   0  0  0  0  0  0  0  0  0  0  0  0
   39.1284   35.2625   94.1370 H   0  0  0  0  0  0  0  0  0  0  0  0
   32.4067   33.8362   93.3523 H   0  0  0  0  0  0  0  0  0  0  0  0
   32.5268   31.9601   91.7682 H   0  0  0  0  0  0  0  0  0  0  0  0
   36.5794   33.0473   90.8114 H   0  0  0  0  0  0  0  0  0  0  0  0
   36.4427   34.9289   92.3735 H   0  0  0  0  0  0  0  0  0  0  0  0
   32.8315   32.1243   89.1232 H   0  0  0  0  0  0  0  0  0  0  0  0
   32.9991   30.6184   87.2055 H   0  0  0  0  0  0  0  0  0  0  0  0
   36.5282   28.8401   88.9134 H   0  0  0  0  0  0  0  0  0  0  0  0
   36.3643   30.3696   90.8255 H   0  0  0  0  0  0  0  0  0  0  0  0
  1  2  1  0
  1 17  1  0
  1 13  2  0
  2  3  1  0
  2 10  2  0
  2 11  2  0
  3  4  1  0
  4  6  1  0
  4  7  2  0
  5  6  2  0
  5  9  1  0
  5 26  1  0
  6 27  1  0
  7  8  1  0
  8  9  2  0
  8 12  1  0
  9 28  1  0
 12 29  1  0
 12 30  1  0
 13 14  1  0
 13 31  1  0
 14 15  2  0
 14 32  1  0
 15 16  1  0
 15 18  1  0
 16 17  2  0
 16 33  1  0
 17 34  1  0
 18 23  1  0
 18 19  2  0
 19 20  1  0
 19 35  1  0
 20 21  2  0
 20 36  1  0
 21 22  1  0
 21 24  1  0
 22 23  2  0
 22 37  1  0
 23 38  1  0
 24 25  3  0
M  CHG  1   3  -1
M  END
>  <Name>  (1) 
BDB29864

>  <Target>  (1) 
11-beta-Hydroxysteroid Dehydrogenase 1 (11-beta-HSD1)

>  <Ki_in_nM>  (1) 
1

>  <Kd_from_ITC>  (1) 
false

>  <Uniprot_ID>  (1) 
P28845

>  <source_organism>  (1) 
Homo sapiens (human)

>  <SourceTag>  (1) 
11betaHSD1

>  <s_i_glide_gridfile>  (1) 
11betahsd1_glide-grid

>  <i_i_glide_lignum>  (1) 
21

>  <i_i_glide_rotatable_bonds>  (1) 
4

>  <r_i_docking_score>  (1) 
-9.25422628004289

>  <r_i_glide_ligand_efficiency>  (1) 
-0.370169051201716

>  <r_i_glide_ligand_efficiency_sa>  (1) 
-1.08238087068989

>  <r_i_glide_ligand_efficiency_ln>  (1) 
-2.19352895515288

>  <r_i_glide_gscore>  (1) 
-9.25422628004289

>  <r_i_glide_lipo>  (1) 
-4.08588457438015

>  <r_i_glide_hbond>  (1) 
-0.54735410952654

>  <r_i_glide_metal>  (1) 
-0

>  <r_i_glide_rewards>  (1) 
-2.30336644823341

>  <r_i_glide_evdw>  (1) 
-34.9753189086914

>  <r_i_glide_ecoul>  (1) 
-7.953453540802

>  <r_i_glide_erotb>  (1) 
0.624162828652078

>  <r_i_glide_esite>  (1) 
0

>  <r_i_glide_emodel>  (1) 
-68.9575624111931

>  <r_i_glide_energy>  (1) 
-42.9287724494934

>  <r_i_glide_einternal>  (1) 
3.47615170478821

>  <i_i_glide_confnum>  (1) 
14

>  <i_i_glide_posenum>  (1) 
233

>  <r_i_glide_eff_state_penalty>  (1) 
0

$$$$
