BDB29860-22-0000
     RDKit          3D

 39 41  0  0  1  0  0  0  0  0999 V2000
   34.4088   34.5166   92.7680 C   0  0  0  0  0  0  0  0  0  0  0  0
   34.2463   35.9937   93.7523 S   0  0  0  0  0  0  0  0  0  0  0  0
   34.3737   35.3993   95.1824 N   0  0  0  0  0  0  0  0  0  0  0  0
   35.5395   34.9780   95.7567 C   0  0  0  0  0  0  0  0  0  0  0  0
   36.5154   34.0638   97.7523 C   0  0  0  0  0  0  0  0  0  0  0  0
   35.4000   34.5143   97.0617 C   0  0  0  0  0  0  0  0  0  0  0  0
   36.7653   34.9595   95.1455 N   0  0  0  0  0  0  0  0  0  0  0  0
   37.8369   34.4946   95.8501 C   0  0  0  0  0  0  0  0  0  0  0  0
   37.7584   34.0638   97.1599 C   0  0  0  0  0  0  0  0  0  0  0  0
   35.3362   36.8638   93.3172 O   0  0  0  0  0  0  0  0  0  0  0  0
   32.8944   36.4638   93.4666 O   0  0  0  0  0  0  0  0  0  0  0  0
   39.1567   34.3835   95.1535 C   0  0  0  0  0  0  0  0  0  0  0  0
   33.3154   33.6638   92.6319 C   0  0  0  0  0  0  0  0  0  0  0  0
   33.3902   32.5882   91.7580 C   0  0  0  0  0  0  0  0  0  0  0  0
   34.5662   32.3535   91.0405 C   0  0  0  0  0  0  0  0  0  0  0  0
   35.6895   33.1562   91.2590 C   0  0  0  0  0  0  0  0  0  0  0  0
   35.6127   34.2402   92.1213 C   0  0  0  0  0  0  0  0  0  0  0  0
   34.6062   31.3235   89.9864 C   0  0  0  0  0  0  0  0  0  0  0  0
   35.6210   30.3640   89.9612 C   0  0  0  0  0  0  0  0  0  0  0  0
   35.7154   29.4813   88.8920 C   0  0  0  0  0  0  0  0  0  0  0  0
   34.8121   29.5837   87.8343 C   0  0  0  0  0  0  0  0  0  0  0  0
   33.7592   30.4923   87.8859 C   0  0  0  0  0  0  0  0  0  0  0  0
   33.6567   31.3607   88.9625 C   0  0  0  0  0  0  0  0  0  0  0  0
   34.9154   28.7199   86.6746 C   0  0  0  0  0  0  0  0  0  0  0  0
   34.9658   28.0265   85.7523 N   0  0  0  0  0  0  0  0  0  0  0  0
   36.4217   33.6638   98.7470 H   0  0  0  0  0  0  0  0  0  0  0  0
   34.4338   34.4987   97.5463 H   0  0  0  0  0  0  0  0  0  0  0  0
   38.6213   33.6864   97.6894 H   0  0  0  0  0  0  0  0  0  0  0  0
   39.9841   34.3076   95.8596 H   0  0  0  0  0  0  0  0  0  0  0  0
   39.1452   33.4776   94.5523 H   0  0  0  0  0  0  0  0  0  0  0  0
   39.3154   35.2638   94.5523 H   0  0  0  0  0  0  0  0  0  0  0  0
   32.4006   33.8630   93.1699 H   0  0  0  0  0  0  0  0  0  0  0  0
   32.5217   31.9617   91.6145 H   0  0  0  0  0  0  0  0  0  0  0  0
   36.6068   32.9794   90.7156 H   0  0  0  0  0  0  0  0  0  0  0  0
   36.4697   34.8861   92.2502 H   0  0  0  0  0  0  0  0  0  0  0  0
   36.3509   30.3194   90.7571 H   0  0  0  0  0  0  0  0  0  0  0  0
   36.5154   28.7539   88.8783 H   0  0  0  0  0  0  0  0  0  0  0  0
   33.0302   30.5423   87.0900 H   0  0  0  0  0  0  0  0  0  0  0  0
   32.8657   32.0965   88.9781 H   0  0  0  0  0  0  0  0  0  0  0  0
  1  2  1  0
  1 17  1  0
  1 13  2  0
  2  3  1  0
  2 10  2  0
  2 11  2  0
  3  4  1  0
  4  6  1  0
  4  7  2  0
  5  6  2  0
  5  9  1  0
  5 26  1  0
  6 27  1  0
  7  8  1  0
  8  9  2  0
  8 12  1  0
  9 28  1  0
 12 29  1  0
 12 30  1  0
 12 31  1  0
 13 14  1  0
 13 32  1  0
 14 15  2  0
 14 33  1  0
 15 16  1  0
 15 18  1  0
 16 17  2  0
 16 34  1  0
 17 35  1  0
 18 23  1  0
 18 19  2  0
 19 20  1  0
 19 36  1  0
 20 21  2  0
 20 37  1  0
 21 22  1  0
 21 24  1  0
 22 23  2  0
 22 38  1  0
 23 39  1  0
 24 25  3  0
M  CHG  1   3  -1
M  END
>  <Name>  (1) 
BDB29860

>  <Target>  (1) 
11-beta-Hydroxysteroid Dehydrogenase 1 (11-beta-HSD1)

>  <Ki_in_nM>  (1) 
4

>  <Kd_from_ITC>  (1) 
false

>  <Uniprot_ID>  (1) 
P28845

>  <source_organism>  (1) 
Homo sapiens (human)

>  <SourceTag>  (1) 
11betaHSD1

>  <s_i_glide_gridfile>  (1) 
11betahsd1_glide-grid

>  <i_i_glide_lignum>  (1) 
23

>  <i_i_glide_rotatable_bonds>  (1) 
4

>  <r_i_docking_score>  (1) 
-8.6496907055369

>  <r_i_glide_ligand_efficiency>  (1) 
-0.345987628221476

>  <r_i_glide_ligand_efficiency_sa>  (1) 
-1.01167396103631

>  <r_i_glide_ligand_efficiency_ln>  (1) 
-2.0502359075257

>  <r_i_glide_gscore>  (1) 
-8.6496907055369

>  <r_i_glide_lipo>  (1) 
-4.12100063420554

>  <r_i_glide_hbond>  (1) 
-0.32

>  <r_i_glide_metal>  (1) 
-0

>  <r_i_glide_rewards>  (1) 
-2.10594344780878

>  <r_i_glide_evdw>  (1) 
-33.7178192138672

>  <r_i_glide_ecoul>  (1) 
-6.96111917495728

>  <r_i_glide_erotb>  (1) 
0.62731221341438

>  <r_i_glide_esite>  (1) 
0

>  <r_i_glide_emodel>  (1) 
-61.461262519533

>  <r_i_glide_energy>  (1) 
-40.6789383888245

>  <r_i_glide_einternal>  (1) 
4.50788736343384

>  <i_i_glide_confnum>  (1) 
11

>  <i_i_glide_posenum>  (1) 
64

>  <r_i_glide_eff_state_penalty>  (1) 
0

$$$$
